[Config ring_csqf]
network = combinedshapers.simulations.ring.ring
#abstract-config = true (requires omnet 6)
description = ""

# Set the simulation time
sim-time-limit = 100s
repeat = 10

# disable automatic MAC forwarding table configuration
*.macForwardingTableConfigurator.typename = ""

# disable local multicast loop
**.udp.defaultMulticastLoop = false

*.*.eth[*].bitrate = 1Gbps

##########################
# Visualizer Configuration
# enable multiple canvas visualizers
*.visualizer.typename = "IntegratedMultiCanvasVisualizer"

#################################

#*.node*.app[*].tagger.typename = "PacketTagger" # enable VLAN Tagging

#############################
# Stream Coding Configuration
*.*.hasOutgoingStreams = true
*.*.hasIncomingStreams = true

## disable forwarding IEEE 802.1Q C-Tag
#*.sw*.bridging.directionReverser.reverser.excludeEncapsulationProtocols = ["ieee8021qctag"]

###############################
# Traffic Shaping Configuration
*.sw*.hasEgressTrafficShaping = true

*.sw*.eth[*].macLayer.queue.numTrafficClasses = 2
*.sw*.eth[*].macLayer.queue.*[0].display-name = "TT"
*.sw*.eth[*].macLayer.queue.*[1].display-name = "TT"
*.sw*.eth[*].macLayer.queue.*[2].display-name = "TT"
*.sw*.eth[*].macLayer.queue.*[3].display-name = "BE"

*.*.eth[*].macLayer.queue.transmissionGate[0].enableImplicitGuardBand = false   # activate implicit guard band for Scheduled Traffic
*.*.eth[*].macLayer.queue.transmissionGate[0].gbMode = "bestCase" # "worstCase" "bestCase"
*.*.eth[*].macLayer.queue.transmissionGate[1].enableImplicitGuardBand = false   # activate implicit guard band for Scheduled Traffic
*.*.eth[*].macLayer.queue.transmissionGate[1].gbMode = "bestCase" # "worstCase" "bestCase"
*.*.eth[*].macLayer.queue.transmissionGate[2].enableImplicitGuardBand = false   # activate implicit guard band for Scheduled Traffic
*.*.eth[*].macLayer.queue.transmissionGate[2].gbMode = "bestCase" # "worstCase" "bestCase"
*.*.eth[*].macLayer.queue.transmissionGate[3].enableImplicitGuardBand = true        # activate implicit guard band for AVB Traffic
*.*.eth[*].macLayer.queue.transmissionGate[3].gbMode = "worstCase"         # "worstCase" "bestCase"

*.sw*.eth[*].macLayer.queue.typename = "Ieee8021qCycleSpecificQueueingAndForwarding"
*.sw*.eth[*].macLayer.queue.queue[*].packetCapacity = -1
*.sw*.eth[*].macLayer.queue.queue[*].dataCapacity = -1b # 1500*8b
*.sw*.eth[*].macLayer.queue.transmissionGate[0].durations = [50us, 100us]
*.sw*.eth[*].macLayer.queue.transmissionGate[0].offset = 0us
*.sw*.eth[*].macLayer.queue.transmissionGate[1].durations = [50us, 100us]
*.sw*.eth[*].macLayer.queue.transmissionGate[1].offset = 100us
*.sw*.eth[*].macLayer.queue.transmissionGate[2].durations = [50us, 100us]
*.sw*.eth[*].macLayer.queue.transmissionGate[2].offset = 50us
*.sw*.eth[*].macLayer.queue.transmissionGate[3].alwaysOpen = true

*.sw_0_4.macTable.forwardingTable = [
                {address: "node0_0_2_0", interface: "eth0", vlan: 45}, 
                {address: "node0_0_3_0", interface: "eth0", vlan: 51}, 
                {address: "node0_0_3_0", interface: "eth0", vlan: 31}, 
                {address: "node0_0_3_0", interface: "eth0", vlan: 50}, 
                {address: "node0_0_4_0", interface: "eth2", vlan: 25}, 
                {address: "node0_0_4_0", interface: "eth2", vlan: 38}, 
                {address: "node0_0_4_0", interface: "eth2", vlan: 47}, 
                {address: "node0_0_4_0", interface: "eth2", vlan: 53}, 
                {address: "node0_0_5_0", interface: "eth1", vlan: 14}, 
                {address: "node0_0_5_0", interface: "eth1", vlan: 7}, 
                {address: "node0_0_7_0", interface: "eth1", vlan: 0}, 
                {address: "node0_0_9_1", interface: "eth0", vlan: 2}, 
                ]

*.sw_0_3.macTable.forwardingTable = [
                {address: "node0_0_2_0", interface: "eth0", vlan: 45}, 
                {address: "node0_0_3_0", interface: "eth2", vlan: 31}, 
                {address: "node0_0_3_0", interface: "eth2", vlan: 50}, 
                {address: "node0_0_3_0", interface: "eth2", vlan: 51}, 
                {address: "node0_0_4_0", interface: "eth1", vlan: 47}, 
                {address: "node0_0_5_0", interface: "eth1", vlan: 14}, 
                {address: "node0_0_7_0", interface: "eth0", vlan: 20}, 
                {address: "node0_0_7_0", interface: "eth0", vlan: 3}, 
                {address: "node0_0_8_1", interface: "eth0", vlan: 37}, 
                {address: "node0_0_9_1", interface: "eth0", vlan: 2}, 
                {address: "node0_0_11_1", interface: "eth0", vlan: 32}, 
                {address: "node0_0_14_0", interface: "eth0", vlan: 21}, 
                ]

*.sw_0_2.macTable.forwardingTable = [
                {address: "node0_0_2_0", interface: "eth2", vlan: 17}, 
                {address: "node0_0_2_0", interface: "eth2", vlan: 45}, 
                {address: "node0_0_2_1", interface: "eth3", vlan: 5}, 
                {address: "node0_0_2_1", interface: "eth3", vlan: 24}, 
                {address: "node0_0_2_1", interface: "eth3", vlan: 39}, 
                {address: "node0_0_4_0", interface: "eth1", vlan: 47}, 
                {address: "node0_0_7_0", interface: "eth0", vlan: 20}, 
                {address: "node0_0_7_0", interface: "eth0", vlan: 3}, 
                {address: "node0_0_8_1", interface: "eth0", vlan: 37}, 
                {address: "node0_0_9_1", interface: "eth0", vlan: 2}, 
                {address: "node0_0_11_1", interface: "eth0", vlan: 32}, 
                {address: "node0_0_14_0", interface: "eth0", vlan: 21}, 
                ]

*.sw_0_1.macTable.forwardingTable = [
                {address: "node0_0_0_0", interface: "eth0", vlan: 34}, 
                {address: "node0_0_1_1", interface: "eth3", vlan: 36}, 
                {address: "node0_0_1_1", interface: "eth3", vlan: 10}, 
                {address: "node0_0_2_0", interface: "eth1", vlan: 17}, 
                {address: "node0_0_2_1", interface: "eth1", vlan: 5}, 
                {address: "node0_0_2_1", interface: "eth1", vlan: 24}, 
                {address: "node0_0_2_1", interface: "eth1", vlan: 39}, 
                {address: "node0_0_4_0", interface: "eth1", vlan: 47}, 
                {address: "node0_0_7_0", interface: "eth0", vlan: 20}, 
                {address: "node0_0_7_0", interface: "eth0", vlan: 16}, 
                {address: "node0_0_7_0", interface: "eth0", vlan: 3}, 
                {address: "node0_0_8_1", interface: "eth0", vlan: 37}, 
                {address: "node0_0_9_1", interface: "eth0", vlan: 2}, 
                {address: "node0_0_11_1", interface: "eth0", vlan: 32}, 
                {address: "node0_0_14_0", interface: "eth0", vlan: 21}, 
                {address: "node0_0_14_0", interface: "eth0", vlan: 29}, 
                {address: "node0_0_14_1", interface: "eth0", vlan: 33}, 
                ]

*.sw_0_0.macTable.forwardingTable = [
                {address: "node0_0_0_0", interface: "eth3", vlan: 48}, 
                {address: "node0_0_0_0", interface: "eth3", vlan: 57}, 
                {address: "node0_0_0_0", interface: "eth3", vlan: 26}, 
                {address: "node0_0_0_0", interface: "eth3", vlan: 35}, 
                {address: "node0_0_0_0", interface: "eth3", vlan: 56}, 
                {address: "node0_0_0_0", interface: "eth3", vlan: 34}, 
                {address: "node0_0_0_1", interface: "eth4", vlan: 6}, 
                {address: "node0_0_1_1", interface: "eth0", vlan: 36}, 
                {address: "node0_0_1_1", interface: "eth0", vlan: 10}, 
                {address: "node0_0_2_0", interface: "eth0", vlan: 17}, 
                {address: "node0_0_2_1", interface: "eth0", vlan: 24}, 
                {address: "node0_0_2_1", interface: "eth0", vlan: 39}, 
                {address: "node0_0_2_1", interface: "eth0", vlan: 5}, 
                {address: "node0_0_7_0", interface: "eth1", vlan: 16}, 
                {address: "node0_0_7_0", interface: "eth1", vlan: 28}, 
                {address: "node0_0_7_0", interface: "eth1", vlan: 3}, 
                {address: "node0_0_7_0", interface: "eth1", vlan: 20}, 
                {address: "node0_0_8_1", interface: "eth2", vlan: 37}, 
                {address: "node0_0_9_1", interface: "eth2", vlan: 2}, 
                {address: "node0_0_11_0", interface: "eth2", vlan: 23}, 
                {address: "node0_0_11_1", interface: "eth2", vlan: 9}, 
                {address: "node0_0_11_1", interface: "eth2", vlan: 32}, 
                {address: "node0_0_14_0", interface: "eth1", vlan: 21}, 
                {address: "node0_0_14_0", interface: "eth1", vlan: 29}, 
                {address: "node0_0_14_1", interface: "eth1", vlan: 33}, 
                ]

*.sw_0_11.macTable.forwardingTable = [
                {address: "node0_0_0_0", interface: "eth0", vlan: 56}, 
                {address: "node0_0_0_1", interface: "eth0", vlan: 6}, 
                {address: "node0_0_2_0", interface: "eth0", vlan: 17}, 
                {address: "node0_0_7_0", interface: "eth0", vlan: 28}, 
                {address: "node0_0_8_1", interface: "eth1", vlan: 37}, 
                {address: "node0_0_9_1", interface: "eth1", vlan: 2}, 
                {address: "node0_0_11_0", interface: "eth3", vlan: 23}, 
                {address: "node0_0_11_1", interface: "eth4", vlan: 19}, 
                {address: "node0_0_11_1", interface: "eth4", vlan: 32}, 
                {address: "node0_0_11_1", interface: "eth4", vlan: 40}, 
                {address: "node0_0_11_1", interface: "eth4", vlan: 11}, 
                {address: "node0_0_11_1", interface: "eth4", vlan: 1}, 
                {address: "node0_0_11_1", interface: "eth4", vlan: 9}, 
                {address: "node0_0_11_1", interface: "eth4", vlan: 22}, 
                ]

*.sw_0_10.macTable.forwardingTable = [
                {address: "node0_0_0_0", interface: "eth0", vlan: 56}, 
                {address: "node0_0_0_1", interface: "eth0", vlan: 6}, 
                {address: "node0_0_2_0", interface: "eth0", vlan: 17}, 
                {address: "node0_0_7_0", interface: "eth0", vlan: 28}, 
                {address: "node0_0_8_1", interface: "eth1", vlan: 37}, 
                {address: "node0_0_9_1", interface: "eth1", vlan: 2}, 
                {address: "node0_0_11_1", interface: "eth0", vlan: 11}, 
                ]

*.sw_0_9.macTable.forwardingTable = [
                {address: "node0_0_0_0", interface: "eth1", vlan: 56}, 
                {address: "node0_0_0_1", interface: "eth1", vlan: 6}, 
                {address: "node0_0_2_0", interface: "eth1", vlan: 17}, 
                {address: "node0_0_7_0", interface: "eth1", vlan: 28}, 
                {address: "node0_0_8_1", interface: "eth0", vlan: 37}, 
                {address: "node0_0_9_1", interface: "eth3", vlan: 44}, 
                {address: "node0_0_9_1", interface: "eth3", vlan: 2}, 
                {address: "node0_0_9_1", interface: "eth3", vlan: 55}, 
                {address: "node0_0_11_1", interface: "eth1", vlan: 11}, 
                ]

*.sw_0_7.macTable.forwardingTable = [
                {address: "node0_0_0_0", interface: "eth0", vlan: 48}, 
                {address: "node0_0_0_0", interface: "eth0", vlan: 57}, 
                {address: "node0_0_0_0", interface: "eth0", vlan: 26}, 
                {address: "node0_0_0_0", interface: "eth0", vlan: 35}, 
                {address: "node0_0_1_1", interface: "eth0", vlan: 36}, 
                {address: "node0_0_1_1", interface: "eth0", vlan: 10}, 
                {address: "node0_0_2_1", interface: "eth0", vlan: 24}, 
                {address: "node0_0_2_1", interface: "eth0", vlan: 39}, 
                {address: "node0_0_2_1", interface: "eth0", vlan: 5}, 
                {address: "node0_0_5_0", interface: "eth1", vlan: 15}, 
                {address: "node0_0_5_0", interface: "eth1", vlan: 27}, 
                {address: "node0_0_7_0", interface: "eth3", vlan: 16}, 
                {address: "node0_0_7_0", interface: "eth3", vlan: 28}, 
                {address: "node0_0_7_0", interface: "eth3", vlan: 52}, 
                {address: "node0_0_7_0", interface: "eth3", vlan: 0}, 
                {address: "node0_0_7_0", interface: "eth3", vlan: 3}, 
                {address: "node0_0_7_0", interface: "eth3", vlan: 8}, 
                {address: "node0_0_7_0", interface: "eth3", vlan: 20}, 
                {address: "node0_0_11_0", interface: "eth0", vlan: 23}, 
                {address: "node0_0_11_1", interface: "eth0", vlan: 9}, 
                {address: "node0_0_12_1", interface: "eth2", vlan: 18}, 
                {address: "node0_0_12_1", interface: "eth2", vlan: 42}, 
                {address: "node0_0_12_1", interface: "eth2", vlan: 41}, 
                {address: "node0_0_12_1", interface: "eth2", vlan: 13}, 
                {address: "node0_0_12_1", interface: "eth2", vlan: 43}, 
                {address: "node0_0_14_0", interface: "eth2", vlan: 4}, 
                {address: "node0_0_14_0", interface: "eth2", vlan: 21}, 
                {address: "node0_0_14_0", interface: "eth2", vlan: 29}, 
                {address: "node0_0_14_1", interface: "eth2", vlan: 33}, 
                {address: "node0_0_14_1", interface: "eth2", vlan: 30}, 
                ]

*.sw_0_12.macTable.forwardingTable = [
                {address: "node0_0_0_0", interface: "eth0", vlan: 57}, 
                {address: "node0_0_1_1", interface: "eth0", vlan: 36}, 
                {address: "node0_0_1_1", interface: "eth0", vlan: 10}, 
                {address: "node0_0_5_0", interface: "eth0", vlan: 15}, 
                {address: "node0_0_5_0", interface: "eth0", vlan: 27}, 
                {address: "node0_0_7_0", interface: "eth0", vlan: 52}, 
                {address: "node0_0_11_1", interface: "eth1", vlan: 1}, 
                {address: "node0_0_11_1", interface: "eth1", vlan: 19}, 
                {address: "node0_0_11_1", interface: "eth1", vlan: 22}, 
                {address: "node0_0_11_1", interface: "eth1", vlan: 40}, 
                {address: "node0_0_12_1", interface: "eth4", vlan: 42}, 
                {address: "node0_0_12_1", interface: "eth4", vlan: 41}, 
                {address: "node0_0_12_1", interface: "eth4", vlan: 13}, 
                {address: "node0_0_12_1", interface: "eth4", vlan: 43}, 
                {address: "node0_0_12_1", interface: "eth4", vlan: 18}, 
                {address: "node0_0_14_0", interface: "eth2", vlan: 4}, 
                {address: "node0_0_14_0", interface: "eth2", vlan: 21}, 
                {address: "node0_0_14_0", interface: "eth2", vlan: 29}, 
                {address: "node0_0_14_1", interface: "eth2", vlan: 33}, 
                {address: "node0_0_14_1", interface: "eth2", vlan: 30}, 
                ]

*.sw_0_13.macTable.forwardingTable = [
                {address: "node0_0_0_0", interface: "eth0", vlan: 57}, 
                {address: "node0_0_1_1", interface: "eth0", vlan: 36}, 
                {address: "node0_0_1_1", interface: "eth0", vlan: 10}, 
                {address: "node0_0_5_0", interface: "eth0", vlan: 27}, 
                {address: "node0_0_5_0", interface: "eth0", vlan: 15}, 
                {address: "node0_0_7_0", interface: "eth0", vlan: 52}, 
                {address: "node0_0_8_1", interface: "eth1", vlan: 54}, 
                {address: "node0_0_9_1", interface: "eth1", vlan: 55}, 
                {address: "node0_0_11_1", interface: "eth0", vlan: 19}, 
                {address: "node0_0_11_1", interface: "eth0", vlan: 1}, 
                {address: "node0_0_11_1", interface: "eth0", vlan: 40}, 
                {address: "node0_0_14_0", interface: "eth1", vlan: 4}, 
                {address: "node0_0_14_0", interface: "eth1", vlan: 29}, 
                {address: "node0_0_14_0", interface: "eth1", vlan: 12}, 
                {address: "node0_0_14_0", interface: "eth1", vlan: 21}, 
                {address: "node0_0_14_1", interface: "eth1", vlan: 30}, 
                {address: "node0_0_14_1", interface: "eth1", vlan: 33}, 
                ]

*.sw_0_14.macTable.forwardingTable = [
                {address: "node0_0_0_0", interface: "eth1", vlan: 57}, 
                {address: "node0_0_1_1", interface: "eth1", vlan: 36}, 
                {address: "node0_0_5_0", interface: "eth1", vlan: 27}, 
                {address: "node0_0_5_0", interface: "eth1", vlan: 15}, 
                {address: "node0_0_8_1", interface: "eth0", vlan: 54}, 
                {address: "node0_0_9_1", interface: "eth0", vlan: 55}, 
                {address: "node0_0_11_1", interface: "eth1", vlan: 1}, 
                {address: "node0_0_11_1", interface: "eth1", vlan: 40}, 
                {address: "node0_0_11_1", interface: "eth1", vlan: 19}, 
                {address: "node0_0_14_0", interface: "eth2", vlan: 4}, 
                {address: "node0_0_14_0", interface: "eth2", vlan: 49}, 
                {address: "node0_0_14_0", interface: "eth2", vlan: 29}, 
                {address: "node0_0_14_0", interface: "eth2", vlan: 12}, 
                {address: "node0_0_14_0", interface: "eth2", vlan: 21}, 
                {address: "node0_0_14_1", interface: "eth3", vlan: 30}, 
                {address: "node0_0_14_1", interface: "eth3", vlan: 33}, 
                ]

*.sw_0_8.macTable.forwardingTable = [
                {address: "node0_0_0_0", interface: "eth0", vlan: 56}, 
                {address: "node0_0_0_1", interface: "eth0", vlan: 6}, 
                {address: "node0_0_7_0", interface: "eth0", vlan: 28}, 
                {address: "node0_0_8_1", interface: "eth3", vlan: 46}, 
                {address: "node0_0_8_1", interface: "eth3", vlan: 54}, 
                {address: "node0_0_8_1", interface: "eth3", vlan: 37}, 
                {address: "node0_0_9_1", interface: "eth0", vlan: 44}, 
                {address: "node0_0_9_1", interface: "eth0", vlan: 55}, 
                ]

*.sw_0_15.macTable.forwardingTable = [
                {address: "node0_0_0_0", interface: "eth1", vlan: 57}, 
                {address: "node0_0_1_1", interface: "eth1", vlan: 36}, 
                {address: "node0_0_5_0", interface: "eth1", vlan: 27}, 
                {address: "node0_0_5_0", interface: "eth1", vlan: 15}, 
                {address: "node0_0_8_1", interface: "eth0", vlan: 54}, 
                {address: "node0_0_8_1", interface: "eth0", vlan: 46}, 
                {address: "node0_0_9_1", interface: "eth0", vlan: 44}, 
                {address: "node0_0_9_1", interface: "eth0", vlan: 55}, 
                {address: "node0_0_11_1", interface: "eth1", vlan: 1}, 
                {address: "node0_0_11_1", interface: "eth1", vlan: 40}, 
                {address: "node0_0_11_1", interface: "eth1", vlan: 19}, 
                {address: "node0_0_14_0", interface: "eth1", vlan: 49}, 
                ]

*.sw_0_6.macTable.forwardingTable = [
                {address: "node0_0_0_0", interface: "eth0", vlan: 48}, 
                {address: "node0_0_0_0", interface: "eth0", vlan: 35}, 
                {address: "node0_0_2_1", interface: "eth0", vlan: 39}, 
                {address: "node0_0_3_0", interface: "eth1", vlan: 31}, 
                {address: "node0_0_3_0", interface: "eth1", vlan: 50}, 
                {address: "node0_0_4_0", interface: "eth1", vlan: 25}, 
                {address: "node0_0_5_0", interface: "eth1", vlan: 27}, 
                {address: "node0_0_5_0", interface: "eth1", vlan: 15}, 
                {address: "node0_0_7_0", interface: "eth0", vlan: 0}, 
                {address: "node0_0_11_0", interface: "eth0", vlan: 23}, 
                {address: "node0_0_11_1", interface: "eth0", vlan: 9}, 
                {address: "node0_0_12_1", interface: "eth0", vlan: 13}, 
                {address: "node0_0_12_1", interface: "eth0", vlan: 18}, 
                {address: "node0_0_12_1", interface: "eth0", vlan: 42}, 
                {address: "node0_0_12_1", interface: "eth0", vlan: 41}, 
                {address: "node0_0_14_0", interface: "eth0", vlan: 4}, 
                {address: "node0_0_14_1", interface: "eth0", vlan: 30}, 
                ]

*.sw_0_5.macTable.forwardingTable = [
                {address: "node0_0_0_0", interface: "eth0", vlan: 48}, 
                {address: "node0_0_2_0", interface: "eth1", vlan: 45}, 
                {address: "node0_0_3_0", interface: "eth1", vlan: 51}, 
                {address: "node0_0_3_0", interface: "eth1", vlan: 31}, 
                {address: "node0_0_3_0", interface: "eth1", vlan: 50}, 
                {address: "node0_0_4_0", interface: "eth1", vlan: 25}, 
                {address: "node0_0_4_0", interface: "eth1", vlan: 38}, 
                {address: "node0_0_4_0", interface: "eth1", vlan: 53}, 
                {address: "node0_0_5_0", interface: "eth2", vlan: 27}, 
                {address: "node0_0_5_0", interface: "eth2", vlan: 14}, 
                {address: "node0_0_5_0", interface: "eth2", vlan: 7}, 
                {address: "node0_0_5_0", interface: "eth2", vlan: 15}, 
                {address: "node0_0_7_0", interface: "eth0", vlan: 0}, 
                {address: "node0_0_11_0", interface: "eth0", vlan: 23}, 
                {address: "node0_0_11_1", interface: "eth0", vlan: 9}, 
                {address: "node0_0_12_1", interface: "eth0", vlan: 41}, 
                ]

*.node0_0_4_1.app[0].typename = "UdpSourceApp"
*.node0_0_4_1.app[0].display-name = "VLAN_0_Flow_0"
*.node0_0_4_1.app[0].io.destAddress = "node0_0_7_0"
*.node0_0_4_1.app[0].io.destPort = 1000
*.node0_0_4_1.app[0].source.packetNameFormat = "%M->node0_0_7_0:TT:gId1:qId7657-%c"
*.node0_0_4_1.app[0].source.packetLength = 228B - 58B
*.node0_0_4_1.app[0].source.productionInterval = 2500us
*.node0_0_4_1.app[0].source.initialProductionOffset = 0s
*.node0_0_7_0.app[0].typename = "UdpSinkApp"
*.node0_0_7_0.app[0].io.localPort = 1000

*.node0_0_15_0.app[0].typename = "UdpSourceApp"
*.node0_0_15_0.app[0].display-name = "VLAN_0_Flow_1"
*.node0_0_15_0.app[0].io.destAddress = "node0_0_11_1"
*.node0_0_15_0.app[0].io.destPort = 1001
*.node0_0_15_0.app[0].source.packetNameFormat = "%M->node0_0_11_1:TT:gId1:qId76576-%c"
*.node0_0_15_0.app[0].source.packetLength = 134B - 58B
*.node0_0_15_0.app[0].source.productionInterval = 2500us
*.node0_0_15_0.app[0].source.initialProductionOffset = 0s
*.node0_0_11_1.app[0].typename = "UdpSinkApp"
*.node0_0_11_1.app[0].io.localPort = 1001

*.node0_0_4_1.app[1].typename = "UdpSourceApp"
*.node0_0_4_1.app[1].display-name = "VLAN_0_Flow_2"
*.node0_0_4_1.app[1].io.destAddress = "node0_0_9_1"
*.node0_0_4_1.app[1].io.destPort = 1002
*.node0_0_4_1.app[1].source.packetNameFormat = "%M->node0_0_9_1:TT:gId1:qId76576576-%c"
*.node0_0_4_1.app[1].source.packetLength = 265B - 58B
*.node0_0_4_1.app[1].source.productionInterval = 2500us
*.node0_0_4_1.app[1].source.initialProductionOffset = 0s
*.node0_0_9_1.app[0].typename = "UdpSinkApp"
*.node0_0_9_1.app[0].io.localPort = 1002

*.node0_0_3_1.app[0].typename = "UdpSourceApp"
*.node0_0_3_1.app[0].display-name = "VLAN_0_Flow_3"
*.node0_0_3_1.app[0].io.destAddress = "node0_0_7_0"
*.node0_0_3_1.app[0].io.destPort = 1003
*.node0_0_3_1.app[0].source.packetNameFormat = "%M->node0_0_7_0:TT:gId1:qId76576-%c"
*.node0_0_3_1.app[0].source.packetLength = 209B - 58B
*.node0_0_3_1.app[0].source.productionInterval = 2500us
*.node0_0_3_1.app[0].source.initialProductionOffset = 0s
*.node0_0_7_0.app[1].typename = "UdpSinkApp"
*.node0_0_7_0.app[1].io.localPort = 1003

*.node0_0_6_1.app[0].typename = "UdpSourceApp"
*.node0_0_6_1.app[0].display-name = "VLAN_0_Flow_4"
*.node0_0_6_1.app[0].io.destAddress = "node0_0_14_0"
*.node0_0_6_1.app[0].io.destPort = 1004
*.node0_0_6_1.app[0].source.packetNameFormat = "%M->node0_0_14_0:TT:gId1:qId76576-%c"
*.node0_0_6_1.app[0].source.packetLength = 129B - 58B
*.node0_0_6_1.app[0].source.productionInterval = 5000us
*.node0_0_6_1.app[0].source.initialProductionOffset = 0s
*.node0_0_14_0.app[0].typename = "UdpSinkApp"
*.node0_0_14_0.app[0].io.localPort = 1004

*.node0_0_7_1.app[0].typename = "UdpSourceApp"
*.node0_0_7_1.app[0].display-name = "VLAN_0_Flow_5"
*.node0_0_7_1.app[0].io.destAddress = "node0_0_2_1"
*.node0_0_7_1.app[0].io.destPort = 1005
*.node0_0_7_1.app[0].source.packetNameFormat = "%M->node0_0_2_1:TT:gId1:qId7657-%c"
*.node0_0_7_1.app[0].source.packetLength = 174B - 58B
*.node0_0_7_1.app[0].source.productionInterval = 2500us
*.node0_0_7_1.app[0].source.initialProductionOffset = 0s
*.node0_0_2_1.app[0].typename = "UdpSinkApp"
*.node0_0_2_1.app[0].io.localPort = 1005

*.node0_0_8_0.app[0].typename = "UdpSourceApp"
*.node0_0_8_0.app[0].display-name = "VLAN_0_Flow_6"
*.node0_0_8_0.app[0].io.destAddress = "node0_0_0_1"
*.node0_0_8_0.app[0].io.destPort = 1006
*.node0_0_8_0.app[0].source.packetNameFormat = "%M->node0_0_0_1:TT:gId1:qId76576-%c"
*.node0_0_8_0.app[0].source.packetLength = 177B - 58B
*.node0_0_8_0.app[0].source.productionInterval = 1000us
*.node0_0_8_0.app[0].source.initialProductionOffset = 0s
*.node0_0_0_1.app[0].typename = "UdpSinkApp"
*.node0_0_0_1.app[0].io.localPort = 1006

*.node0_0_4_1.app[2].typename = "UdpSourceApp"
*.node0_0_4_1.app[2].display-name = "VLAN_0_Flow_7"
*.node0_0_4_1.app[2].io.destAddress = "node0_0_5_0"
*.node0_0_4_1.app[2].io.destPort = 1007
*.node0_0_4_1.app[2].source.packetNameFormat = "%M->node0_0_5_0:TT:gId1:qId76-%c"
*.node0_0_4_1.app[2].source.packetLength = 242B - 58B
*.node0_0_4_1.app[2].source.productionInterval = 5000us
*.node0_0_4_1.app[2].source.initialProductionOffset = 0s
*.node0_0_5_0.app[0].typename = "UdpSinkApp"
*.node0_0_5_0.app[0].io.localPort = 1007

*.node0_0_7_1.app[1].typename = "UdpSourceApp"
*.node0_0_7_1.app[1].display-name = "VLAN_0_Flow_8"
*.node0_0_7_1.app[1].io.destAddress = "node0_0_7_0"
*.node0_0_7_1.app[1].io.destPort = 1008
*.node0_0_7_1.app[1].source.packetNameFormat = "%M->node0_0_7_0:TT:gId1:qId7-%c"
*.node0_0_7_1.app[1].source.packetLength = 172B - 58B
*.node0_0_7_1.app[1].source.productionInterval = 2500us
*.node0_0_7_1.app[1].source.initialProductionOffset = 0s
*.node0_0_7_0.app[2].typename = "UdpSinkApp"
*.node0_0_7_0.app[2].io.localPort = 1008

*.node0_0_5_1.app[0].typename = "UdpSourceApp"
*.node0_0_5_1.app[0].display-name = "VLAN_0_Flow_9"
*.node0_0_5_1.app[0].io.destAddress = "node0_0_11_1"
*.node0_0_5_1.app[0].io.destPort = 1009
*.node0_0_5_1.app[0].source.packetNameFormat = "%M->node0_0_11_1:TT:gId1:qId76576-%c"
*.node0_0_5_1.app[0].source.packetLength = 280B - 58B
*.node0_0_5_1.app[0].source.productionInterval = 1000us
*.node0_0_5_1.app[0].source.initialProductionOffset = 0s
*.node0_0_11_1.app[1].typename = "UdpSinkApp"
*.node0_0_11_1.app[1].io.localPort = 1009

*.node0_0_13_0.app[0].typename = "UdpSourceApp"
*.node0_0_13_0.app[0].display-name = "VLAN_0_Flow_10"
*.node0_0_13_0.app[0].io.destAddress = "node0_0_1_1"
*.node0_0_13_0.app[0].io.destPort = 1010
*.node0_0_13_0.app[0].source.packetNameFormat = "%M->node0_0_1_1:TT:gId1:qId76576-%c"
*.node0_0_13_0.app[0].source.packetLength = 139B - 58B
*.node0_0_13_0.app[0].source.productionInterval = 2500us
*.node0_0_13_0.app[0].source.initialProductionOffset = 0s
*.node0_0_1_1.app[0].typename = "UdpSinkApp"
*.node0_0_1_1.app[0].io.localPort = 1010

*.node0_0_9_0.app[0].typename = "UdpSourceApp"
*.node0_0_9_0.app[0].display-name = "VLAN_0_Flow_11"
*.node0_0_9_0.app[0].io.destAddress = "node0_0_11_1"
*.node0_0_9_0.app[0].io.destPort = 1011
*.node0_0_9_0.app[0].source.packetNameFormat = "%M->node0_0_11_1:TT:gId1:qId765-%c"
*.node0_0_9_0.app[0].source.packetLength = 262B - 58B
*.node0_0_9_0.app[0].source.productionInterval = 1000us
*.node0_0_9_0.app[0].source.initialProductionOffset = 0s
*.node0_0_11_1.app[2].typename = "UdpSinkApp"
*.node0_0_11_1.app[2].io.localPort = 1011

*.node0_0_13_1.app[0].typename = "UdpSourceApp"
*.node0_0_13_1.app[0].display-name = "VLAN_0_Flow_12"
*.node0_0_13_1.app[0].io.destAddress = "node0_0_14_0"
*.node0_0_13_1.app[0].io.destPort = 1012
*.node0_0_13_1.app[0].source.packetNameFormat = "%M->node0_0_14_0:TT:gId1:qId76-%c"
*.node0_0_13_1.app[0].source.packetLength = 215B - 58B
*.node0_0_13_1.app[0].source.productionInterval = 2500us
*.node0_0_13_1.app[0].source.initialProductionOffset = 0s
*.node0_0_14_0.app[1].typename = "UdpSinkApp"
*.node0_0_14_0.app[1].io.localPort = 1012

*.node0_0_6_1.app[1].typename = "UdpSourceApp"
*.node0_0_6_1.app[1].display-name = "VLAN_0_Flow_13"
*.node0_0_6_1.app[1].io.destAddress = "node0_0_12_1"
*.node0_0_6_1.app[1].io.destPort = 1013
*.node0_0_6_1.app[1].source.packetNameFormat = "%M->node0_0_12_1:TT:gId1:qId765-%c"
*.node0_0_6_1.app[1].source.packetLength = 283B - 58B
*.node0_0_6_1.app[1].source.productionInterval = 2500us
*.node0_0_6_1.app[1].source.initialProductionOffset = 0s
*.node0_0_12_1.app[0].typename = "UdpSinkApp"
*.node0_0_12_1.app[0].io.localPort = 1013

*.node0_0_3_1.app[1].typename = "UdpSourceApp"
*.node0_0_3_1.app[1].display-name = "VLAN_0_Flow_14"
*.node0_0_3_1.app[1].io.destAddress = "node0_0_5_0"
*.node0_0_3_1.app[1].io.destPort = 1014
*.node0_0_3_1.app[1].source.packetNameFormat = "%M->node0_0_5_0:TT:gId1:qId765-%c"
*.node0_0_3_1.app[1].source.packetLength = 247B - 58B
*.node0_0_3_1.app[1].source.productionInterval = 5000us
*.node0_0_3_1.app[1].source.initialProductionOffset = 0s
*.node0_0_5_0.app[1].typename = "UdpSinkApp"
*.node0_0_5_0.app[1].io.localPort = 1014

*.node0_0_15_0.app[1].typename = "UdpSourceApp"
*.node0_0_15_0.app[1].display-name = "VLAN_0_Flow_15"
*.node0_0_15_0.app[1].io.destAddress = "node0_0_5_0"
*.node0_0_15_0.app[1].io.destPort = 1015
*.node0_0_15_0.app[1].source.packetNameFormat = "%M->node0_0_5_0:TT:gId1:qId7657657-%c"
*.node0_0_15_0.app[1].source.packetLength = 126B - 58B
*.node0_0_15_0.app[1].source.productionInterval = 1000us
*.node0_0_15_0.app[1].source.initialProductionOffset = 0s
*.node0_0_5_0.app[2].typename = "UdpSinkApp"
*.node0_0_5_0.app[2].io.localPort = 1015

*.node0_0_1_0.app[0].typename = "UdpSourceApp"