[Config BAG_cqf]
network = combinedshapers.simulations.BAG.BAG
#abstract-config = true (requires omnet 6)
description = ""

# Set the simulation time
sim-time-limit = 200s
repeat = 10

# disable automatic MAC forwarding table configuration
*.macForwardingTableConfigurator.typename = ""

# disable local multicast loop
**.udp.defaultMulticastLoop = false

*.*.eth[*].bitrate = 1Gbps

##########################
# Visualizer Configuration
# enable multiple canvas visualizers
*.visualizer.typename = "IntegratedMultiCanvasVisualizer"

#################################

#*.node*.app[*].tagger.typename = "PacketTagger" # enable VLAN Tagging

#############################
# Stream Coding Configuration
*.*.hasOutgoingStreams = true
*.*.hasIncomingStreams = true

## disable forwarding IEEE 802.1Q C-Tag
#*.sw*.bridging.directionReverser.reverser.excludeEncapsulationProtocols = ["ieee8021qctag"]

###############################
# Traffic Shaping Configuration
*.sw*.hasEgressTrafficShaping = true

*.sw*.eth[*].macLayer.queue.numTrafficClasses = 2
*.sw*.eth[*].macLayer.queue.*[0].display-name = "TT"
*.sw*.eth[*].macLayer.queue.*[1].display-name = "TT"
*.sw*.eth[*].macLayer.queue.*[2].display-name = "BE"

#*.*.eth[*].macLayer.queue.transmissionGate[0].enableImplicitGuardBand = false   # activate implicit guard band for Scheduled Traffic
#*.*.eth[*].macLayer.queue.transmissionGate[0].gbMode = "bestCase" # "worstCase" "bestCase"
#*.*.eth[*].macLayer.queue.transmissionGate[1].enableImplicitGuardBand = false   # activate implicit guard band for Scheduled Traffic
#*.*.eth[*].macLayer.queue.transmissionGate[1].gbMode = "bestCase" # "worstCase" "bestCase"
#*.*.eth[*].macLayer.queue.transmissionGate[2].enableImplicitGuardBand = true        # activate implicit guard band for AVB Traffic
#*.*.eth[*].macLayer.queue.transmissionGate[2].gbMode = "worstCase"         # "worstCase" "bestCase"

*.sw*.eth[*].macLayer.queue.typename = "Ieee8021qCyclicQueueingAndForwarding"
*.sw*.eth[*].macLayer.queue.transmissionGate[0].durations = [50us, 50us]
*.sw*.eth[*].macLayer.queue.transmissionGate[0].offset = 0us
*.sw*.eth[*].macLayer.queue.transmissionGate[1].durations = [50us, 50us]
*.sw*.eth[*].macLayer.queue.transmissionGate[1].offset = 50us
*.sw*.eth[*].macLayer.queue.transmissionGate[2].alwaysOpen = true

*.sw_0_3.macTable.forwardingTable = [
                {address: "node0_0_0_1", interface: "eth1", vlan: 92}, 
                {address: "node0_0_0_1", interface: "eth1", vlan: 43}, 
                {address: "node0_0_0_1", interface: "eth1", vlan: 15}, 
                {address: "node0_0_0_1", interface: "eth1", vlan: 54}, 
                {address: "node0_0_0_1", interface: "eth1", vlan: 5}, 
                {address: "node0_0_0_1", interface: "eth0", vlan: 46}, 
                {address: "node0_0_0_2", interface: "eth0", vlan: 9}, 
                {address: "node0_0_0_3", interface: "eth0", vlan: 63}, 
                {address: "node0_0_0_3", interface: "eth1", vlan: 52}, 
                {address: "node0_0_0_3", interface: "eth0", vlan: 20}, 
                {address: "node0_0_0_3", interface: "eth0", vlan: 26}, 
                {address: "node0_0_0_3", interface: "eth0", vlan: 29}, 
                {address: "node0_0_0_3", interface: "eth0", vlan: 1}, 
                {address: "node0_0_0_3", interface: "eth0", vlan: 77}, 
                {address: "node0_0_0_3", interface: "eth0", vlan: 86}, 
                {address: "node0_0_0_3", interface: "eth0", vlan: 25}, 
                {address: "node0_0_0_3", interface: "eth0", vlan: 98}, 
                {address: "node0_0_0_3", interface: "eth0", vlan: 49}, 
                {address: "node0_0_0_3", interface: "eth0", vlan: 67}, 
                {address: "node0_0_0_3", interface: "eth0", vlan: 18}, 
                {address: "node0_0_0_3", interface: "eth0", vlan: 79}, 
                {address: "node0_0_0_4", interface: "eth2", vlan: 60}, 
                {address: "node0_0_0_4", interface: "eth2", vlan: 72}, 
                {address: "node0_0_0_4", interface: "eth2", vlan: 84}, 
                {address: "node0_0_0_4", interface: "eth2", vlan: 96}, 
                {address: "node0_0_0_4", interface: "eth2", vlan: 99}, 
                {address: "node0_0_0_4", interface: "eth2", vlan: 38}, 
                {address: "node0_0_0_4", interface: "eth2", vlan: 62}, 
                {address: "node0_0_0_4", interface: "eth2", vlan: 19}, 
                {address: "node0_0_0_4", interface: "eth2", vlan: 83}, 
                {address: "node0_0_0_4", interface: "eth2", vlan: 89}, 
                {address: "node0_0_0_4", interface: "eth2", vlan: 6}, 
                {address: "node0_0_0_4", interface: "eth2", vlan: 3}, 
                {address: "node0_0_0_4", interface: "eth2", vlan: 82}, 
                {address: "node0_0_0_4", interface: "eth2", vlan: 27}, 
                {address: "node0_0_0_4", interface: "eth2", vlan: 24}, 
                {address: "node0_0_0_4", interface: "eth2", vlan: 39}, 
                {address: "node0_0_0_4", interface: "eth2", vlan: 97}, 
                {address: "node0_0_0_4", interface: "eth2", vlan: 42}, 
                {address: "node0_0_0_5", interface: "eth1", vlan: 36}, 
                {address: "node0_0_0_5", interface: "eth1", vlan: 47}, 
                ]

*.sw_0_5.macTable.forwardingTable = [
                {address: "node0_0_0_1", interface: "eth0", vlan: 85}, 
                {address: "node0_0_0_1", interface: "eth4", vlan: 34}, 
                {address: "node0_0_0_1", interface: "eth0", vlan: 88}, 
                {address: "node0_0_0_1", interface: "eth3", vlan: 54}, 
                {address: "node0_0_0_1", interface: "eth3", vlan: 5}, 
                {address: "node0_0_0_1", interface: "eth0", vlan: 2}, 
                {address: "node0_0_0_1", interface: "eth4", vlan: 76}, 
                {address: "node0_0_0_1", interface: "eth4", vlan: 66}, 
                {address: "node0_0_0_1", interface: "eth0", vlan: 59}, 
                {address: "node0_0_0_1", interface: "eth2", vlan: 46}, 
                {address: "node0_0_0_1", interface: "eth4", vlan: 87}, 
                {address: "node0_0_0_1", interface: "eth4", vlan: 93}, 
                {address: "node0_0_0_1", interface: "eth4", vlan: 35}, 
                {address: "node0_0_0_1", interface: "eth0", vlan: 37}, 
                {address: "node0_0_0_1", interface: "eth0", vlan: 43}, 
                {address: "node0_0_0_2", interface: "eth1", vlan: 9}, 
                {address: "node0_0_0_2", interface: "eth1", vlan: 78}, 
                {address: "node0_0_0_3", interface: "eth2", vlan: 74}, 
                {address: "node0_0_0_3", interface: "eth2", vlan: 77}, 
                {address: "node0_0_0_3", interface: "eth2", vlan: 86}, 
                {address: "node0_0_0_3", interface: "eth2", vlan: 25}, 
                {address: "node0_0_0_3", interface: "eth2", vlan: 98}, 
                {address: "node0_0_0_3", interface: "eth2", vlan: 49}, 
                {address: "node0_0_0_3", interface: "eth2", vlan: 67}, 
                {address: "node0_0_0_3", interface: "eth2", vlan: 79}, 
                {address: "node0_0_0_3", interface: "eth2", vlan: 18}, 
                {address: "node0_0_0_3", interface: "eth2", vlan: 63}, 
                {address: "node0_0_0_3", interface: "eth1", vlan: 29}, 
                {address: "node0_0_0_3", interface: "eth2", vlan: 81}, 
                {address: "node0_0_0_3", interface: "eth2", vlan: 20}, 
                {address: "node0_0_0_3", interface: "eth2", vlan: 26}, 
                {address: "node0_0_0_3", interface: "eth1", vlan: 1}, 
                {address: "node0_0_0_4", interface: "eth4", vlan: 83}, 
                {address: "node0_0_0_4", interface: "eth3", vlan: 3}, 
                {address: "node0_0_0_4", interface: "eth3", vlan: 82}, 
                {address: "node0_0_0_4", interface: "eth4", vlan: 24}, 
                {address: "node0_0_0_4", interface: "eth3", vlan: 60}, 
                {address: "node0_0_0_4", interface: "eth3", vlan: 72}, 
                {address: "node0_0_0_4", interface: "eth4", vlan: 97}, 
                {address: "node0_0_0_4", interface: "eth3", vlan: 84}, 
                {address: "node0_0_0_4", interface: "eth3", vlan: 99}, 
                {address: "node0_0_0_4", interface: "eth3", vlan: 96}, 
                {address: "node0_0_0_4", interface: "eth3", vlan: 19}, 
                {address: "node0_0_0_5", interface: "eth2", vlan: 12}, 
                {address: "node0_0_0_5", interface: "eth2", vlan: 91}, 
                {address: "node0_0_0_5", interface: "eth4", vlan: 55}, 
                {address: "node0_0_0_5", interface: "eth4", vlan: 58}, 
                {address: "node0_0_0_5", interface: "eth4", vlan: 64}, 
                ]

*.sw_0_2.macTable.forwardingTable = [
                {address: "node0_0_0_1", interface: "eth0", vlan: 85}, 
                {address: "node0_0_0_1", interface: "eth0", vlan: 54}, 
                {address: "node0_0_0_1", interface: "eth0", vlan: 2}, 
                {address: "node0_0_0_1", interface: "eth0", vlan: 5}, 
                {address: "node0_0_0_1", interface: "eth1", vlan: 28}, 
                {address: "node0_0_0_1", interface: "eth0", vlan: 59}, 
                {address: "node0_0_0_2", interface: "eth2", vlan: 13}, 
                {address: "node0_0_0_2", interface: "eth2", vlan: 9}, 
                {address: "node0_0_0_2", interface: "eth2", vlan: 100}, 
                {address: "node0_0_0_2", interface: "eth2", vlan: 11}, 
                {address: "node0_0_0_2", interface: "eth2", vlan: 69}, 
                {address: "node0_0_0_2", interface: "eth2", vlan: 78}, 
                {address: "node0_0_0_2", interface: "eth2", vlan: 41}, 
                {address: "node0_0_0_3", interface: "eth1", vlan: 29}, 
                {address: "node0_0_0_3", interface: "eth1", vlan: 1}, 
                {address: "node0_0_0_4", interface: "eth0", vlan: 19}, 
                {address: "node0_0_0_4", interface: "eth0", vlan: 3}, 
                {address: "node0_0_0_4", interface: "eth1", vlan: 89}, 
                {address: "node0_0_0_4", interface: "eth0", vlan: 84}, 
                {address: "node0_0_0_4", interface: "eth0", vlan: 99}, 
                {address: "node0_0_0_5", interface: "eth1", vlan: 8}, 
                {address: "node0_0_0_5", interface: "eth1", vlan: 4}, 
                {address: "node0_0_0_5", interface: "eth1", vlan: 10}, 
                ]

*.sw_0_6.macTable.forwardingTable = [
                {address: "node0_0_0_1", interface: "eth0", vlan: 76}, 
                {address: "node0_0_0_1", interface: "eth0", vlan: 88}, 
                {address: "node0_0_0_1", interface: "eth1", vlan: 59}, 
                {address: "node0_0_0_1", interface: "eth0", vlan: 66}, 
                {address: "node0_0_0_1", interface: "eth0", vlan: 87}, 
                {address: "node0_0_0_1", interface: "eth0", vlan: 35}, 
                {address: "node0_0_0_1", interface: "eth0", vlan: 93}, 
                {address: "node0_0_0_1", interface: "eth3", vlan: 7}, 
                {address: "node0_0_0_1", interface: "eth3", vlan: 28}, 
                {address: "node0_0_0_1", interface: "eth1", vlan: 85}, 
                {address: "node0_0_0_1", interface: "eth3", vlan: 46}, 
                {address: "node0_0_0_1", interface: "eth0", vlan: 37}, 
                {address: "node0_0_0_1", interface: "eth0", vlan: 34}, 
                {address: "node0_0_0_1", interface: "eth1", vlan: 2}, 
                {address: "node0_0_0_1", interface: "eth3", vlan: 61}, 
                {address: "node0_0_0_2", interface: "eth1", vlan: 100}, 
                {address: "node0_0_0_2", interface: "eth1", vlan: 11}, 
                {address: "node0_0_0_2", interface: "eth1", vlan: 69}, 
                {address: "node0_0_0_2", interface: "eth1", vlan: 41}, 
                {address: "node0_0_0_2", interface: "eth1", vlan: 13}, 
                {address: "node0_0_0_3", interface: "eth4", vlan: 67}, 
                {address: "node0_0_0_3", interface: "eth4", vlan: 79}, 
                {address: "node0_0_0_3", interface: "eth4", vlan: 18}, 
                {address: "node0_0_0_3", interface: "eth4", vlan: 63}, 
                {address: "node0_0_0_3", interface: "eth4", vlan: 81}, 
                {address: "node0_0_0_3", interface: "eth4", vlan: 26}, 
                {address: "node0_0_0_3", interface: "eth4", vlan: 29}, 
                {address: "node0_0_0_3", interface: "eth4", vlan: 20}, 
                {address: "node0_0_0_3", interface: "eth4", vlan: 1}, 
                {address: "node0_0_0_3", interface: "eth4", vlan: 74}, 
                {address: "node0_0_0_3", interface: "eth4", vlan: 77}, 
                {address: "node0_0_0_3", interface: "eth4", vlan: 86}, 
                {address: "node0_0_0_3", interface: "eth4", vlan: 25}, 
                {address: "node0_0_0_3", interface: "eth4", vlan: 98}, 
                {address: "node0_0_0_3", interface: "eth4", vlan: 52}, 
                {address: "node0_0_0_3", interface: "eth4", vlan: 49}, 
                {address: "node0_0_0_4", interface: "eth0", vlan: 83}, 
                {address: "node0_0_0_4", interface: "eth1", vlan: 84}, 
                {address: "node0_0_0_4", interface: "eth3", vlan: 27}, 
                {address: "node0_0_0_4", interface: "eth1", vlan: 99}, 
                {address: "node0_0_0_4", interface: "eth0", vlan: 24}, 
                {address: "node0_0_0_4", interface: "eth3", vlan: 42}, 
                {address: "node0_0_0_4", interface: "eth3", vlan: 39}, 
                {address: "node0_0_0_4", interface: "eth2", vlan: 89}, 
                {address: "node0_0_0_4", interface: "eth1", vlan: 19}, 
                {address: "node0_0_0_4", interface: "eth0", vlan: 72}, 
                {address: "node0_0_0_4", interface: "eth3", vlan: 38}, 
                {address: "node0_0_0_4", interface: "eth1", vlan: 3}, 
                {address: "node0_0_0_4", interface: "eth3", vlan: 62}, 
                {address: "node0_0_0_5", interface: "eth2", vlan: 31}, 
                {address: "node0_0_0_5", interface: "eth2", vlan: 12}, 
                {address: "node0_0_0_5", interface: "eth2", vlan: 73}, 
                {address: "node0_0_0_5", interface: "eth2", vlan: 91}, 
                {address: "node0_0_0_5", interface: "eth2", vlan: 36}, 
                {address: "node0_0_0_5", interface: "eth2", vlan: 30}, 
                {address: "node0_0_0_5", interface: "eth2", vlan: 33}, 
                {address: "node0_0_0_5", interface: "eth2", vlan: 48}, 
                {address: "node0_0_0_5", interface: "eth2", vlan: 51}, 
                {address: "node0_0_0_5", interface: "eth2", vlan: 8}, 
                {address: "node0_0_0_5", interface: "eth3", vlan: 57}, 
                {address: "node0_0_0_5", interface: "eth2", vlan: 44}, 
                {address: "node0_0_0_5", interface: "eth2", vlan: 53}, 
                {address: "node0_0_0_5", interface: "eth2", vlan: 65}, 
                {address: "node0_0_0_5", interface: "eth2", vlan: 4}, 
                {address: "node0_0_0_5", interface: "eth2", vlan: 10}, 
                ]

*.sw_0_1.macTable.forwardingTable = [
                {address: "node0_0_0_1", interface: "eth0", vlan: 76}, 
                {address: "node0_0_0_1", interface: "eth0", vlan: 15}, 
                {address: "node0_0_0_1", interface: "eth0", vlan: 85}, 
                {address: "node0_0_0_1", interface: "eth0", vlan: 88}, 
                {address: "node0_0_0_1", interface: "eth0", vlan: 54}, 
                {address: "node0_0_0_1", interface: "eth0", vlan: 2}, 
                {address: "node0_0_0_1", interface: "eth0", vlan: 66}, 
                {address: "node0_0_0_1", interface: "eth0", vlan: 5}, 
                {address: "node0_0_0_1", interface: "eth0", vlan: 87}, 
                {address: "node0_0_0_1", interface: "eth0", vlan: 32}, 
                {address: "node0_0_0_1", interface: "eth0", vlan: 90}, 
                {address: "node0_0_0_1", interface: "eth0", vlan: 35}, 
                {address: "node0_0_0_1", interface: "eth0", vlan: 93}, 
                {address: "node0_0_0_1", interface: "eth0", vlan: 59}, 
                {address: "node0_0_0_1", interface: "eth0", vlan: 7}, 
                {address: "node0_0_0_1", interface: "eth0", vlan: 22}, 
                {address: "node0_0_0_1", interface: "eth0", vlan: 28}, 
                {address: "node0_0_0_1", interface: "eth0", vlan: 92}, 
                {address: "node0_0_0_1", interface: "eth0", vlan: 37}, 
                {address: "node0_0_0_1", interface: "eth0", vlan: 34}, 
                {address: "node0_0_0_1", interface: "eth0", vlan: 46}, 
                {address: "node0_0_0_1", interface: "eth0", vlan: 43}, 
                {address: "node0_0_0_1", interface: "eth0", vlan: 61}, 
                {address: "node0_0_0_2", interface: "eth2", vlan: 69}, 
                {address: "node0_0_0_3", interface: "eth2", vlan: 81}, 
                {address: "node0_0_0_3", interface: "eth1", vlan: 74}, 
                {address: "node0_0_0_4", interface: "eth1", vlan: 97}, 
                {address: "node0_0_0_4", interface: "eth1", vlan: 60}, 
                {address: "node0_0_0_4", interface: "eth2", vlan: 96}, 
                {address: "node0_0_0_4", interface: "eth2", vlan: 6}, 
                {address: "node0_0_0_4", interface: "eth1", vlan: 82}, 
                {address: "node0_0_0_5", interface: "eth2", vlan: 16}, 
                {address: "node0_0_0_5", interface: "eth2", vlan: 80}, 
                {address: "node0_0_0_5", interface: "eth1", vlan: 55}, 
                {address: "node0_0_0_5", interface: "eth1", vlan: 58}, 
                {address: "node0_0_0_5", interface: "eth1", vlan: 64}, 
                {address: "node0_0_0_5", interface: "eth2", vlan: 12}, 
                {address: "node0_0_0_5", interface: "eth2", vlan: 70}, 
                {address: "node0_0_0_5", interface: "eth2", vlan: 73}, 
                {address: "node0_0_0_5", interface: "eth1", vlan: 91}, 
                {address: "node0_0_0_5", interface: "eth2", vlan: 17}, 
                {address: "node0_0_0_5", interface: "eth2", vlan: 14}, 
                {address: "node0_0_0_5", interface: "eth2", vlan: 75}, 
                ]

*.sw_0_4.macTable.forwardingTable = [
                {address: "node0_0_0_1", interface: "eth1", vlan: 90}, 
                {address: "node0_0_0_1", interface: "eth0", vlan: 76}, 
                {address: "node0_0_0_1", interface: "eth1", vlan: 22}, 
                {address: "node0_0_0_1", interface: "eth0", vlan: 66}, 
                {address: "node0_0_0_1", interface: "eth0", vlan: 7}, 
                {address: "node0_0_0_1", interface: "eth0", vlan: 34}, 
                {address: "node0_0_0_1", interface: "eth1", vlan: 32}, 
                {address: "node0_0_0_2", interface: "eth0", vlan: 11}, 
                {address: "node0_0_0_2", interface: "eth0", vlan: 41}, 
                {address: "node0_0_0_2", interface: "eth1", vlan: 100}, 
                {address: "node0_0_0_2", interface: "eth0", vlan: 13}, 
                {address: "node0_0_0_2", interface: "eth1", vlan: 78}, 
                {address: "node0_0_0_3", interface: "eth1", vlan: 49}, 
                {address: "node0_0_0_3", interface: "eth1", vlan: 67}, 
                {address: "node0_0_0_3", interface: "eth1", vlan: 63}, 
                {address: "node0_0_0_3", interface: "eth1", vlan: 20}, 
                {address: "node0_0_0_4", interface: "eth0", vlan: 83}, 
                {address: "node0_0_0_4", interface: "eth0", vlan: 24}, 
                {address: "node0_0_0_4", interface: "eth1", vlan: 89}, 
                {address: "node0_0_0_4", interface: "eth0", vlan: 38}, 
                {address: "node0_0_0_5", interface: "eth2", vlan: 16}, 
                {address: "node0_0_0_5", interface: "eth2", vlan: 80}, 
                {address: "node0_0_0_5", interface: "eth2", vlan: 31}, 
                {address: "node0_0_0_5", interface: "eth2", vlan: 55}, 
                {address: "node0_0_0_5", interface: "eth2", vlan: 58}, 
                {address: "node0_0_0_5", interface: "eth2", vlan: 12}, 
                {address: "node0_0_0_5", interface: "eth2", vlan: 64}, 
                {address: "node0_0_0_5", interface: "eth2", vlan: 70}, 
                {address: "node0_0_0_5", interface: "eth2", vlan: 73}, 
                {address: "node0_0_0_5", interface: "eth2", vlan: 91}, 
                {address: "node0_0_0_5", interface: "eth2", vlan: 30}, 
                {address: "node0_0_0_5", interface: "eth2", vlan: 36}, 
                {address: "node0_0_0_5", interface: "eth2", vlan: 33}, 
                {address: "node0_0_0_5", interface: "eth2", vlan: 48}, 
                {address: "node0_0_0_5", interface: "eth2", vlan: 51}, 
                {address: "node0_0_0_5", interface: "eth2", vlan: 57}, 
                {address: "node0_0_0_5", interface: "eth2", vlan: 8}, 
                {address: "node0_0_0_5", interface: "eth2", vlan: 17}, 
                {address: "node0_0_0_5", interface: "eth2", vlan: 75}, 
                {address: "node0_0_0_5", interface: "eth2", vlan: 14}, 
                {address: "node0_0_0_5", interface: "eth2", vlan: 44}, 
                {address: "node0_0_0_5", interface: "eth2", vlan: 47}, 
                {address: "node0_0_0_5", interface: "eth2", vlan: 53}, 
                {address: "node0_0_0_5", interface: "eth2", vlan: 65}, 
                {address: "node0_0_0_5", interface: "eth2", vlan: 4}, 
                {address: "node0_0_0_5", interface: "eth2", vlan: 10}, 
                ]

*.sw_0_0.macTable.forwardingTable = [
                {address: "node0_0_0_1", interface: "eth0", vlan: 76}, 
                {address: "node0_0_0_1", interface: "eth0", vlan: 15}, 
                {address: "node0_0_0_1", interface: "eth0", vlan: 54}, 
                {address: "node0_0_0_1", interface: "eth0", vlan: 66}, 
                {address: "node0_0_0_1", interface: "eth0", vlan: 5}, 
                {address: "node0_0_0_1", interface: "eth1", vlan: 43}, 
                {address: "node0_0_0_1", interface: "eth0", vlan: 32}, 
                {address: "node0_0_0_1", interface: "eth0", vlan: 87}, 
                {address: "node0_0_0_1", interface: "eth0", vlan: 90}, 
                {address: "node0_0_0_1", interface: "eth0", vlan: 35}, 
                {address: "node0_0_0_1", interface: "eth0", vlan: 93}, 
                {address: "node0_0_0_1", interface: "eth0", vlan: 7}, 
                {address: "node0_0_0_1", interface: "eth0", vlan: 22}, 
                {address: "node0_0_0_1", interface: "eth0", vlan: 28}, 
                {address: "node0_0_0_1", interface: "eth0", vlan: 92}, 
                {address: "node0_0_0_1", interface: "eth0", vlan: 34}, 
                {address: "node0_0_0_1", interface: "eth0", vlan: 46}, 
                {address: "node0_0_0_1", interface: "eth0", vlan: 61}, 
                {address: "node0_0_0_2", interface: "eth2", vlan: 100}, 
                {address: "node0_0_0_2", interface: "eth1", vlan: 78}, 
                {address: "node0_0_0_2", interface: "eth2", vlan: 69}, 
                {address: "node0_0_0_3", interface: "eth2", vlan: 52}, 
                {address: "node0_0_0_3", interface: "eth3", vlan: 49}, 
                {address: "node0_0_0_3", interface: "eth3", vlan: 67}, 
                {address: "node0_0_0_3", interface: "eth1", vlan: 81}, 
                {address: "node0_0_0_3", interface: "eth3", vlan: 63}, 
                {address: "node0_0_0_3", interface: "eth3", vlan: 20}, 
                {address: "node0_0_0_4", interface: "eth3", vlan: 6}, 
                {address: "node0_0_0_4", interface: "eth3", vlan: 24}, 
                {address: "node0_0_0_4", interface: "eth1", vlan: 96}, 
                {address: "node0_0_0_4", interface: "eth3", vlan: 27}, 
                {address: "node0_0_0_4", interface: "eth3", vlan: 42}, 
                {address: "node0_0_0_4", interface: "eth3", vlan: 39}, 
                {address: "node0_0_0_4", interface: "eth3", vlan: 97}, 
                {address: "node0_0_0_4", interface: "eth3", vlan: 89}, 
                {address: "node0_0_0_4", interface: "eth3", vlan: 38}, 
                {address: "node0_0_0_4", interface: "eth3", vlan: 83}, 
                {address: "node0_0_0_4", interface: "eth3", vlan: 62}, 
                {address: "node0_0_0_5", interface: "eth4", vlan: 70}, 
                {address: "node0_0_0_5", interface: "eth1", vlan: 12}, 
                {address: "node0_0_0_5", interface: "eth4", vlan: 57}, 
                {address: "node0_0_0_5", interface: "eth4", vlan: 14}, 
                {address: "node0_0_0_5", interface: "eth2", vlan: 73}, 
                {address: "node0_0_0_5", interface: "eth4", vlan: 17}, 
                {address: "node0_0_0_5", interface: "eth4", vlan: 75}, 
                {address: "node0_0_0_5", interface: "eth2", vlan: 36}, 
                {address: "node0_0_0_5", interface: "eth4", vlan: 47}, 
                {address: "node0_0_0_5", interface: "eth4", vlan: 16}, 
                {address: "node0_0_0_5", interface: "eth4", vlan: 80}, 
                {address: "node0_0_0_5", interface: "eth4", vlan: 55}, 
                {address: "node0_0_0_5", interface: "eth4", vlan: 58}, 
                {address: "node0_0_0_5", interface: "eth4", vlan: 64}, 
                ]

*.node0_0_0_4.app[0].typename = "UdpSourceApp"
*.node0_0_0_4.app[0].display-name = "VLAN_0_Flow_1"
*.node0_0_0_4.app[0].io.destAddress = "node0_0_0_3"
*.node0_0_0_4.app[0].io.destPort = 1101
*.node0_0_0_4.app[0].source.packetNameFormat = "%M->node0_0_0_3:TT:gId1:qId7676-%c"
*.node0_0_0_4.app[0].source.packetLength = 825B - 58B
*.node0_0_0_4.app[0].source.productionInterval = 2500us
*.node0_0_0_4.app[0].source.initialProductionOffset = 0s
*.node0_0_0_3.app[0].typename = "UdpSinkApp"
*.node0_0_0_3.app[0].io.localPort = 1101

*.node0_0_0_3.app[1].typename = "UdpSourceApp"
*.node0_0_0_3.app[1].display-name = "VLAN_0_Flow_2"
*.node0_0_0_3.app[1].io.destAddress = "node0_0_0_1"
*.node0_0_0_3.app[1].io.destPort = 1102
*.node0_0_0_3.app[1].source.packetNameFormat = "%M->node0_0_0_1:TT:gId1:qId7676-%c"
*.node0_0_0_3.app[1].source.packetLength = 887B - 58B
*.node0_0_0_3.app[1].source.productionInterval = 1000us
*.node0_0_0_3.app[1].source.initialProductionOffset = 0s
*.node0_0_0_1.app[0].typename = "UdpSinkApp"
*.node0_0_0_1.app[0].io.localPort = 1102

*.node0_0_0_3.app[2].typename = "UdpSourceApp"
*.node0_0_0_3.app[2].display-name = "VLAN_0_Flow_3"
*.node0_0_0_3.app[2].io.destAddress = "node0_0_0_4"
*.node0_0_0_3.app[2].io.destPort = 1103
*.node0_0_0_3.app[2].source.packetNameFormat = "%M->node0_0_0_4:TT:gId1:qId7676-%c"
*.node0_0_0_3.app[2].source.packetLength = 1233B - 58B
*.node0_0_0_3.app[2].source.productionInterval = 2500us
*.node0_0_0_3.app[2].source.initialProductionOffset = 0s
*.node0_0_0_4.app[1].typename = "UdpSinkApp"
*.node0_0_0_4.app[1].io.localPort = 1103

*.node0_0_0_2.app[0].typename = "UdpSourceApp"
*.node0_0_0_2.app[0].display-name = "VLAN_0_Flow_4"
*.node0_0_0_2.app[0].io.destAddress = "node0_0_0_5"
*.node0_0_0_2.app[0].io.destPort = 1104
*.node0_0_0_2.app[0].source.packetNameFormat = "%M->node0_0_0_5:TT:gId1:qId767-%c"
*.node0_0_0_2.app[0].source.packetLength = 488B - 58B
*.node0_0_0_2.app[0].source.productionInterval = 1000us
*.node0_0_0_2.app[0].source.initialProductionOffset = 0s
*.node0_0_0_5.app[0].typename = "UdpSinkApp"
*.node0_0_0_5.app[0].io.localPort = 1104

*.node0_0_0_2.app[1].typename = "UdpSourceApp"
*.node0_0_0_2.app[1].display-name = "VLAN_0_Flow_5"
*.node0_0_0_2.app[1].io.destAddress = "node0_0_0_1"
*.node0_0_0_2.app[1].io.destPort = 1105
*.node0_0_0_2.app[1].source.packetNameFormat = "%M->node0_0_0_1:TT:gId1:qId76767-%c"
*.node0_0_0_2.app[1].source.packetLength = 501B - 58B
*.node0_0_0_2.app[1].source.productionInterval = 2500us
*.node0_0_0_2.app[1].source.initialProductionOffset = 0s
*.node0_0_0_1.app[1].typename = "UdpSinkApp"
*.node0_0_0_1.app[1].io.localPort = 1105

*.node0_0_0_1.app[2].typename = "UdpSourceApp"
*.node0_0_0_1.app[2].display-name = "VLAN_0_Flow_6"
*.node0_0_0_1.app[2].io.destAddress = "node0_0_0_4"
*.node0_0_0_1.app[2].io.destPort = 1106
*.node0_0_0_1.app[2].source.packetNameFormat = "%M->node0_0_0_4:TT:gId1:qId767-%c"
*.node0_0_0_1.app[2].source.packetLength = 351B - 58B
*.node0_0_0_1.app[2].source.productionInterval = 5000us
*.node0_0_0_1.app[2].source.initialProductionOffset = 0s
*.node0_0_0_4.app[2].typename = "UdpSinkApp"
*.node0_0_0_4.app[2].io.localPort = 1106

*.node0_0_0_5.app[1].typename = "UdpSourceApp"
*.node0_0_0_5.app[1].display-name = "VLAN_0_Flow_7"
*.node0_0_0_5.app[1].io.destAddress = "node0_0_0_1"
*.node0_0_0_5.app[1].io.destPort = 1107
*.node0_0_0_5.app[1].source.packetNameFormat = "%M->node0_0_0_1:TT:gId1:qId7676-%c"
*.node0_0_0_5.app[1].source.packetLength = 440B - 58B
*.node0_0_0_5.app[1].source.productionInterval = 5000us
*.node0_0_0_5.app[1].source.initialProductionOffset = 0s
*.node0_0_0_1.app[3].typename = "UdpSinkApp"
*.node0_0_0_1.app[3].io.localPort = 1107

*.node0_0_0_2.app[2].typename = "UdpSourceApp"
*.node0_0_0_2.app[2].display-name = "VLAN_0_Flow_8"
*.node0_0_0_2.app[2].io.destAddress = "node0_0_0_5"
*.node0_0_0_2.app[2].io.destPort = 1108
*.node0_0_0_2.app[2].source.packetNameFormat = "%M->node0_0_0_5:TT:gId1:qId767-%c"
*.node0_0_0_2.app[2].source.packetLength = 176B - 58B
*.node0_0_0_2.app[2].source.productionInterval = 1000us
*.node0_0_0_2.app[2].source.initialProductionOffset = 0s
*.node0_0_0_5.app[2].typename = "UdpSinkApp"
*.node0_0_0_5.app[2].io.localPort = 1108

*.node0_0_0_4.app[3].typename = "UdpSourceApp"
*.node0_0_0_4.app[3].display-name = "VLAN_0_Flow_9"
*.node0_0_0_4.app[3].io.destAddress = "node0_0_0_2"
*.node0_0_0_4.app[3].io.destPort = 1109