[Config BAG_mcqf]
network = combinedshapers.simulations.BAG.BAG
#abstract-config = true (requires omnet 6)
description = ""

# Set the simulation time
sim-time-limit = 20s
repeat = 10

# disable automatic MAC forwarding table configuration
*.macForwardingTableConfigurator.typename = ""

# disable local multicast loop
**.udp.defaultMulticastLoop = false

*.*.eth[*].bitrate = 1Gbps

##########################
# Visualizer Configuration
# enable multiple canvas visualizers
*.visualizer.typename = "IntegratedMultiCanvasVisualizer"

#################################

#*.node*.app[*].tagger.typename = "PacketTagger" # enable VLAN Tagging

#############################
# Stream Coding Configuration
*.*.hasOutgoingStreams = true
*.*.hasIncomingStreams = true

## disable forwarding IEEE 802.1Q C-Tag
#*.sw*.bridging.directionReverser.reverser.excludeEncapsulationProtocols = ["ieee8021qctag"]

###############################
# Traffic Shaping Configuration
*.sw*.hasEgressTrafficShaping = true

*.sw*.eth[*].macLayer.queue.numTrafficClasses = 2
*.sw*.eth[*].macLayer.queue.*[0..6].display-name = "TT"
*.sw*.eth[*].macLayer.queue.*[7].display-name = "BE"

#*.*.eth[*].macLayer.queue.transmissionGateCSQF[0..2].enableImplicitGuardBand = false   # activate implicit guard band for Scheduled Traffic
#*.*.eth[*].macLayer.queue.transmissionGateCSQF[0..2].gbMode = "bestCase" # "worstCase" "bestCase"
#*.*.eth[*].macLayer.queue.transmissionGateCQF[0..3].enableImplicitGuardBand = false   # activate implicit guard band for Scheduled Traffic
#*.*.eth[*].macLayer.queue.transmissionGateCQF[0..3].gbMode = "bestCase" # "worstCase" "bestCase"
#*.*.eth[*].macLayer.queue.transmissionGate.enableImplicitGuardBand = true        # activate implicit guard band for AVB Traffic
#*.*.eth[*].macLayer.queue.transmissionGate.gbMode = "worstCase"         # "worstCase" "bestCase"

*.sw*.eth[*].macLayer.queue.typename = "Ieee8021qMCQFTwoStep"
*.sw*.eth[*].macLayer.queue.queue[*].packetCapacity = -1
*.sw*.eth[*].macLayer.queue.queue[*].dataCapacity = -1b
*.sw*.eth[*].macLayer.queue.queue[*].dropperClass = "inet::queueing::PacketAtCollectionEndDropper"
*.sw*.eth[*].macLayer.queue.transmissionGateCSQF[0].durations = [25us, 50us]
*.sw*.eth[*].macLayer.queue.transmissionGateCSQF[0].offset = 0us
*.sw*.eth[*].macLayer.queue.transmissionGateCSQF[1].durations = [25us, 50us]
*.sw*.eth[*].macLayer.queue.transmissionGateCSQF[1].offset = 50us
*.sw*.eth[*].macLayer.queue.transmissionGateCSQF[2].durations = [25us, 50us]
*.sw*.eth[*].macLayer.queue.transmissionGateCSQF[2].offset = 25us
*.sw*.eth[*].macLayer.queue.transmissionGateCQF[0].durations = [50us, 50us]
*.sw*.eth[*].macLayer.queue.transmissionGateCQF[0].offset = 0us
*.sw*.eth[*].macLayer.queue.transmissionGateCQF[1].durations = [50us, 50us]
*.sw*.eth[*].macLayer.queue.transmissionGateCQF[1].offset = 50us
*.sw*.eth[*].macLayer.queue.transmissionGateCQF[2].durations = [100us, 100us]
*.sw*.eth[*].macLayer.queue.transmissionGateCQF[2].offset = 0us
*.sw*.eth[*].macLayer.queue.transmissionGateCQF[3].durations = [100us, 100us]
*.sw*.eth[*].macLayer.queue.transmissionGateCQF[3].offset = 100us
*.sw*.eth[*].macLayer.queue.transmissionGate.alwaysOpen = true
*.sw_0_3.macTable.forwardingTable = [
                {address: "node0_0_0_1", interface: "eth0", vlan: 43}, 
                {address: "node0_0_0_1", interface: "eth0", vlan: 15}, 
                {address: "node0_0_0_1", interface: "eth1", vlan: 54}, 
                {address: "node0_0_0_1", interface: "eth1", vlan: 28}, 
                {address: "node0_0_0_2", interface: "eth0", vlan: 9}, 
                {address: "node0_0_0_2", interface: "eth0", vlan: 69}, 
                {address: "node0_0_0_3", interface: "eth0", vlan: 1}, 
                {address: "node0_0_0_3", interface: "eth1", vlan: 52}, 
                {address: "node0_0_0_3", interface: "eth0", vlan: 25}, 
                {address: "node0_0_0_3", interface: "eth0", vlan: 98}, 
                {address: "node0_0_0_3", interface: "eth0", vlan: 18}, 
                {address: "node0_0_0_3", interface: "eth0", vlan: 79}, 
                {address: "node0_0_0_3", interface: "eth0", vlan: 26}, 
                {address: "node0_0_0_3", interface: "eth1", vlan: 77}, 
                {address: "node0_0_0_3", interface: "eth1", vlan: 86}, 
                {address: "node0_0_0_4", interface: "eth2", vlan: 38}, 
                {address: "node0_0_0_4", interface: "eth2", vlan: 96}, 
                {address: "node0_0_0_4", interface: "eth2", vlan: 99}, 
                {address: "node0_0_0_4", interface: "eth2", vlan: 19}, 
                {address: "node0_0_0_4", interface: "eth2", vlan: 6}, 
                {address: "node0_0_0_4", interface: "eth2", vlan: 24}, 
                {address: "node0_0_0_4", interface: "eth2", vlan: 39}, 
                {address: "node0_0_0_4", interface: "eth2", vlan: 97}, 
                {address: "node0_0_0_4", interface: "eth2", vlan: 42}, 
                {address: "node0_0_0_4", interface: "eth2", vlan: 1015}, 
                {address: "node0_0_0_4", interface: "eth2", vlan: 60}, 
                {address: "node0_0_0_5", interface: "eth1", vlan: 30}, 
                ]

*.sw_0_5.macTable.forwardingTable = [
                {address: "node0_0_0_1", interface: "eth3", vlan: 54}, 
                {address: "node0_0_0_1", interface: "eth0", vlan: 61}, 
                {address: "node0_0_0_1", interface: "eth0", vlan: 15}, 
                {address: "node0_0_0_1", interface: "eth0", vlan: 5}, 
                {address: "node0_0_0_1", interface: "eth3", vlan: 28}, 
                {address: "node0_0_0_1", interface: "eth2", vlan: 43}, 
                {address: "node0_0_0_1", interface: "eth0", vlan: 87}, 
                {address: "node0_0_0_1", interface: "eth0", vlan: 90}, 
                {address: "node0_0_0_1", interface: "eth0", vlan: 59}, 
                {address: "node0_0_0_2", interface: "eth1", vlan: 11}, 
                {address: "node0_0_0_2", interface: "eth1", vlan: 69}, 
                {address: "node0_0_0_2", interface: "eth1", vlan: 13}, 
                {address: "node0_0_0_2", interface: "eth2", vlan: 100}, 
                {address: "node0_0_0_2", interface: "eth2", vlan: 78}, 
                {address: "node0_0_0_2", interface: "eth1", vlan: 9}, 
                {address: "node0_0_0_3", interface: "eth1", vlan: 18}, 
                {address: "node0_0_0_3", interface: "eth2", vlan: 81}, 
                {address: "node0_0_0_3", interface: "eth2", vlan: 1}, 
                {address: "node0_0_0_3", interface: "eth1", vlan: 26}, 
                {address: "node0_0_0_3", interface: "eth2", vlan: 98}, 
                {address: "node0_0_0_3", interface: "eth1", vlan: 68}, 
                {address: "node0_0_0_3", interface: "eth2", vlan: 79}, 
                {address: "node0_0_0_3", interface: "eth1", vlan: 25}, 
                {address: "node0_0_0_4", interface: "eth4", vlan: 60}, 
                {address: "node0_0_0_4", interface: "eth3", vlan: 38}, 
                {address: "node0_0_0_4", interface: "eth3", vlan: 99}, 
                {address: "node0_0_0_4", interface: "eth3", vlan: 6}, 
                {address: "node0_0_0_4", interface: "eth3", vlan: 24}, 
                {address: "node0_0_0_4", interface: "eth3", vlan: 39}, 
                {address: "node0_0_0_4", interface: "eth3", vlan: 97}, 
                {address: "node0_0_0_4", interface: "eth3", vlan: 1015}, 
                {address: "node0_0_0_5", interface: "eth4", vlan: 14}, 
                {address: "node0_0_0_5", interface: "eth4", vlan: 53}, 
                {address: "node0_0_0_5", interface: "eth4", vlan: 65}, 
                {address: "node0_0_0_5", interface: "eth4", vlan: 80}, 
                {address: "node0_0_0_5", interface: "eth2", vlan: 55}, 
                {address: "node0_0_0_5", interface: "eth2", vlan: 58}, 
                {address: "node0_0_0_5", interface: "eth2", vlan: 12}, 
                {address: "node0_0_0_5", interface: "eth2", vlan: 70}, 
                {address: "node0_0_0_5", interface: "eth3", vlan: 30}, 
                ]

*.sw_0_6.macTable.forwardingTable = [
                {address: "node0_0_0_1", interface: "eth3", vlan: 94}, 
                {address: "node0_0_0_1", interface: "eth3", vlan: 66}, 
                {address: "node0_0_0_1", interface: "eth0", vlan: 61}, 
                {address: "node0_0_0_1", interface: "eth3", vlan: 35}, 
                {address: "node0_0_0_1", interface: "eth2", vlan: 93}, 
                {address: "node0_0_0_1", interface: "eth3", vlan: 37}, 
                {address: "node0_0_0_1", interface: "eth3", vlan: 43}, 
                {address: "node0_0_0_1", interface: "eth0", vlan: 87}, 
                {address: "node0_0_0_1", interface: "eth1", vlan: 59}, 
                {address: "node0_0_0_1", interface: "eth3", vlan: 85}, 
                {address: "node0_0_0_1", interface: "eth3", vlan: 88}, 
                {address: "node0_0_0_2", interface: "eth1", vlan: 100}, 
                {address: "node0_0_0_2", interface: "eth1", vlan: 78}, 
                {address: "node0_0_0_2", interface: "eth0", vlan: 11}, 
                {address: "node0_0_0_2", interface: "eth1", vlan: 41}, 
                {address: "node0_0_0_2", interface: "eth0", vlan: 13}, 
                {address: "node0_0_0_3", interface: "eth4", vlan: 67}, 
                {address: "node0_0_0_3", interface: "eth4", vlan: 18}, 
                {address: "node0_0_0_3", interface: "eth4", vlan: 79}, 
                {address: "node0_0_0_3", interface: "eth4", vlan: 63}, 
                {address: "node0_0_0_3", interface: "eth4", vlan: 81}, 
                {address: "node0_0_0_3", interface: "eth4", vlan: 26}, 
                {address: "node0_0_0_3", interface: "eth4", vlan: 98}, 
                {address: "node0_0_0_3", interface: "eth4", vlan: 1}, 
                {address: "node0_0_0_3", interface: "eth4", vlan: 68}, 
                {address: "node0_0_0_3", interface: "eth4", vlan: 77}, 
                {address: "node0_0_0_3", interface: "eth4", vlan: 25}, 
                {address: "node0_0_0_3", interface: "eth4", vlan: 86}, 
                {address: "node0_0_0_3", interface: "eth4", vlan: 49}, 
                {address: "node0_0_0_3", interface: "eth4", vlan: 52}, 
                {address: "node0_0_0_4", interface: "eth1", vlan: 39}, 
                {address: "node0_0_0_4", interface: "eth0", vlan: 24}, 
                {address: "node0_0_0_4", interface: "eth0", vlan: 97}, 
                {address: "node0_0_0_4", interface: "eth1", vlan: 99}, 
                {address: "node0_0_0_4", interface: "eth3", vlan: 19}, 
                {address: "node0_0_0_4", interface: "eth0", vlan: 1015}, 
                {address: "node0_0_0_4", interface: "eth0", vlan: 38}, 
                {address: "node0_0_0_4", interface: "eth3", vlan: 42}, 
                {address: "node0_0_0_5", interface: "eth2", vlan: 17}, 
                {address: "node0_0_0_5", interface: "eth2", vlan: 44}, 
                {address: "node0_0_0_5", interface: "eth0", vlan: 30}, 
                {address: "node0_0_0_5", interface: "eth2", vlan: 4}, 
                {address: "node0_0_0_5", interface: "eth2", vlan: 10}, 
                {address: "node0_0_0_5", interface: "eth2", vlan: 31}, 
                {address: "node0_0_0_5", interface: "eth2", vlan: 55}, 
                {address: "node0_0_0_5", interface: "eth2", vlan: 58}, 
                {address: "node0_0_0_5", interface: "eth0", vlan: 53}, 
                {address: "node0_0_0_5", interface: "eth2", vlan: 12}, 
                {address: "node0_0_0_5", interface: "eth2", vlan: 70}, 
                {address: "node0_0_0_5", interface: "eth1", vlan: 65}, 
                {address: "node0_0_0_5", interface: "eth2", vlan: 33}, 
                {address: "node0_0_0_5", interface: "eth2", vlan: 48}, 
                {address: "node0_0_0_5", interface: "eth2", vlan: 51}, 
                {address: "node0_0_0_5", interface: "eth2", vlan: 57}, 
                {address: "node0_0_0_5", interface: "eth3", vlan: 8}, 
                ]

*.sw_0_2.macTable.forwardingTable = [
                {address: "node0_0_0_1", interface: "eth0", vlan: 28}, 
                {address: "node0_0_0_1", interface: "eth0", vlan: 54}, 
                {address: "node0_0_0_1", interface: "eth0", vlan: 5}, 
                {address: "node0_0_0_1", interface: "eth0", vlan: 59}, 
                {address: "node0_0_0_2", interface: "eth2", vlan: 13}, 
                {address: "node0_0_0_2", interface: "eth2", vlan: 9}, 
                {address: "node0_0_0_2", interface: "eth2", vlan: 100}, 
                {address: "node0_0_0_2", interface: "eth2", vlan: 11}, 
                {address: "node0_0_0_2", interface: "eth2", vlan: 69}, 
                {address: "node0_0_0_2", interface: "eth2", vlan: 78}, 
                {address: "node0_0_0_2", interface: "eth2", vlan: 41}, 
                {address: "node0_0_0_3", interface: "eth1", vlan: 18}, 
                {address: "node0_0_0_3", interface: "eth1", vlan: 26}, 
                {address: "node0_0_0_3", interface: "eth1", vlan: 68}, 
                {address: "node0_0_0_3", interface: "eth1", vlan: 25}, 
                {address: "node0_0_0_4", interface: "eth0", vlan: 39}, 
                {address: "node0_0_0_4", interface: "eth0", vlan: 99}, 
                {address: "node0_0_0_5", interface: "eth1", vlan: 8}, 
                {address: "node0_0_0_5", interface: "eth1", vlan: 4}, 
                {address: "node0_0_0_5", interface: "eth0", vlan: 65}, 
                {address: "node0_0_0_5", interface: "eth1", vlan: 10}, 
                ]

*.sw_0_4.macTable.forwardingTable = [
                {address: "node0_0_0_1", interface: "eth1", vlan: 34}, 
                {address: "node0_0_0_1", interface: "eth1", vlan: 76}, 
                {address: "node0_0_0_1", interface: "eth0", vlan: 94}, 
                {address: "node0_0_0_1", interface: "eth1", vlan: 90}, 
                {address: "node0_0_0_1", interface: "eth0", vlan: 66}, 
                {address: "node0_0_0_1", interface: "eth1", vlan: 93}, 
                {address: "node0_0_0_1", interface: "eth1", vlan: 7}, 
                {address: "node0_0_0_2", interface: "eth1", vlan: 100}, 
                {address: "node0_0_0_2", interface: "eth1", vlan: 78}, 
                {address: "node0_0_0_2", interface: "eth0", vlan: 11}, 
                {address: "node0_0_0_2", interface: "eth0", vlan: 41}, 
                {address: "node0_0_0_2", interface: "eth0", vlan: 13}, 
                {address: "node0_0_0_3", interface: "eth0", vlan: 86}, 
                {address: "node0_0_0_3", interface: "eth0", vlan: 49}, 
                {address: "node0_0_0_3", interface: "eth0", vlan: 67}, 
                {address: "node0_0_0_3", interface: "eth0", vlan: 63}, 
                {address: "node0_0_0_4", interface: "eth0", vlan: 24}, 
                {address: "node0_0_0_4", interface: "eth0", vlan: 38}, 
                {address: "node0_0_0_5", interface: "eth2", vlan: 8}, 
                {address: "node0_0_0_5", interface: "eth2", vlan: 14}, 
                {address: "node0_0_0_5", interface: "eth2", vlan: 17}, 
                {address: "node0_0_0_5", interface: "eth2", vlan: 44}, 
                {address: "node0_0_0_5", interface: "eth2", vlan: 53}, 
                {address: "node0_0_0_5", interface: "eth2", vlan: 4}, 
                {address: "node0_0_0_5", interface: "eth2", vlan: 65}, 
                {address: "node0_0_0_5", interface: "eth2", vlan: 71}, 
                {address: "node0_0_0_5", interface: "eth2", vlan: 10}, 
                {address: "node0_0_0_5", interface: "eth2", vlan: 16}, 
                {address: "node0_0_0_5", interface: "eth2", vlan: 80}, 
                {address: "node0_0_0_5", interface: "eth2", vlan: 31}, 
                {address: "node0_0_0_5", interface: "eth2", vlan: 55}, 
                {address: "node0_0_0_5", interface: "eth2", vlan: 58}, 
                {address: "node0_0_0_5", interface: "eth2", vlan: 12}, 
                {address: "node0_0_0_5", interface: "eth2", vlan: 70}, 
                {address: "node0_0_0_5", interface: "eth2", vlan: 30}, 
                {address: "node0_0_0_5", interface: "eth2", vlan: 33}, 
                {address: "node0_0_0_5", interface: "eth2", vlan: 91}, 
                {address: "node0_0_0_5", interface: "eth2", vlan: 48}, 
                {address: "node0_0_0_5", interface: "eth2", vlan: 51}, 
                {address: "node0_0_0_5", interface: "eth2", vlan: 57}, 
                ]

*.sw_0_1.macTable.forwardingTable = [
                {address: "node0_0_0_1", interface: "eth0", vlan: 7}, 
                {address: "node0_0_0_1", interface: "eth0", vlan: 28}, 
                {address: "node0_0_0_1", interface: "eth0", vlan: 34}, 
                {address: "node0_0_0_1", interface: "eth0", vlan: 37}, 
                {address: "node0_0_0_1", interface: "eth0", vlan: 43}, 
                {address: "node0_0_0_1", interface: "eth0", vlan: 61}, 
                {address: "node0_0_0_1", interface: "eth0", vlan: 76}, 
                {address: "node0_0_0_1", interface: "eth0", vlan: 15}, 
                {address: "node0_0_0_1", interface: "eth0", vlan: 88}, 
                {address: "node0_0_0_1", interface: "eth0", vlan: 85}, 
                {address: "node0_0_0_1", interface: "eth0", vlan: 94}, 
                {address: "node0_0_0_1", interface: "eth0", vlan: 54}, 
                {address: "node0_0_0_1", interface: "eth0", vlan: 5}, 
                {address: "node0_0_0_1", interface: "eth0", vlan: 66}, 
                {address: "node0_0_0_1", interface: "eth0", vlan: 87}, 
                {address: "node0_0_0_1", interface: "eth0", vlan: 93}, 
                {address: "node0_0_0_1", interface: "eth0", vlan: 35}, 
                {address: "node0_0_0_1", interface: "eth0", vlan: 90}, 
                {address: "node0_0_0_1", interface: "eth0", vlan: 59}, 
                {address: "node0_0_0_2", interface: "eth2", vlan: 69}, 
                {address: "node0_0_0_3", interface: "eth2", vlan: 81}, 
                {address: "node0_0_0_3", interface: "eth1", vlan: 68}, 
                {address: "node0_0_0_4", interface: "eth2", vlan: 96}, 
                {address: "node0_0_0_4", interface: "eth1", vlan: 60}, 
                {address: "node0_0_0_4", interface: "eth2", vlan: 6}, 
                {address: "node0_0_0_4", interface: "eth2", vlan: 97}, 
                {address: "node0_0_0_5", interface: "eth1", vlan: 55}, 
                {address: "node0_0_0_5", interface: "eth2", vlan: 17}, 
                {address: "node0_0_0_5", interface: "eth1", vlan: 58}, 
                {address: "node0_0_0_5", interface: "eth1", vlan: 12}, 
                {address: "node0_0_0_5", interface: "eth1", vlan: 70}, 
                {address: "node0_0_0_5", interface: "eth2", vlan: 71}, 
                {address: "node0_0_0_5", interface: "eth2", vlan: 16}, 
                {address: "node0_0_0_5", interface: "eth1", vlan: 14}, 
                {address: "node0_0_0_5", interface: "eth1", vlan: 80}, 
                {address: "node0_0_0_5", interface: "eth2", vlan: 91}, 
                ]

*.sw_0_0.macTable.forwardingTable = [
                {address: "node0_0_0_1", interface: "eth0", vlan: 7}, 
                {address: "node0_0_0_1", interface: "eth0", vlan: 28}, 
                {address: "node0_0_0_1", interface: "eth0", vlan: 34}, 
                {address: "node0_0_0_1", interface: "eth0", vlan: 37}, 
                {address: "node0_0_0_1", interface: "eth0", vlan: 43}, 
                {address: "node0_0_0_1", interface: "eth0", vlan: 76}, 
                {address: "node0_0_0_1", interface: "eth0", vlan: 88}, 
                {address: "node0_0_0_1", interface: "eth0", vlan: 85}, 
                {address: "node0_0_0_1", interface: "eth0", vlan: 94}, 
                {address: "node0_0_0_1", interface: "eth0", vlan: 54}, 
                {address: "node0_0_0_1", interface: "eth1", vlan: 90}, 
                {address: "node0_0_0_1", interface: "eth0", vlan: 66}, 
                {address: "node0_0_0_1", interface: "eth0", vlan: 93}, 
                {address: "node0_0_0_1", interface: "eth0", vlan: 35}, 
                {address: "node0_0_0_2", interface: "eth1", vlan: 100}, 
                {address: "node0_0_0_2", interface: "eth1", vlan: 78}, 
                {address: "node0_0_0_2", interface: "eth3", vlan: 69}, 
                {address: "node0_0_0_3", interface: "eth1", vlan: 81}, 
                {address: "node0_0_0_3", interface: "eth2", vlan: 77}, 
                {address: "node0_0_0_3", interface: "eth2", vlan: 52}, 
                {address: "node0_0_0_3", interface: "eth4", vlan: 86}, 
                {address: "node0_0_0_4", interface: "eth3", vlan: 96}, 
                {address: "node0_0_0_4", interface: "eth3", vlan: 19}, 
                {address: "node0_0_0_4", interface: "eth2", vlan: 97}, 
                {address: "node0_0_0_4", interface: "eth1", vlan: 6}, 
                {address: "node0_0_0_4", interface: "eth3", vlan: 42}, 
                {address: "node0_0_0_4", interface: "eth3", vlan: 60}, 
                {address: "node0_0_0_5", interface: "eth2", vlan: 17}, 
                {address: "node0_0_0_5", interface: "eth4", vlan: 8}, 
                {address: "node0_0_0_5", interface: "eth4", vlan: 14}, 
                {address: "node0_0_0_5", interface: "eth4", vlan: 53}, 
                {address: "node0_0_0_5", interface: "eth4", vlan: 65}, 
                {address: "node0_0_0_5", interface: "eth4", vlan: 71}, 
                {address: "node0_0_0_5", interface: "eth4", vlan: 16}, 
                {address: "node0_0_0_5", interface: "eth4", vlan: 80}, 
                {address: "node0_0_0_5", interface: "eth4", vlan: 91}, 
                {address: "node0_0_0_5", interface: "eth4", vlan: 30}, 
                ]

*.node0_0_0_4.app[0].typename = "UdpSourceApp"
*.node0_0_0_4.app[0].display-name = "VLAN_0_Flow_1"
*.node0_0_0_4.app[0].io.destAddress = "node0_0_0_3"
*.node0_0_0_4.app[0].io.destPort = 2016
*.node0_0_0_4.app[0].source.packetNameFormat = "%M->node0_0_0_3:TT:gId1:qId765-%c"
*.node0_0_0_4.app[0].source.packetLength = 825B - 58B
*.node0_0_0_4.app[0].source.productionInterval = 2500us
*.node0_0_0_4.app[0].source.initialProductionOffset = 0s
*.node0_0_0_3.app[0].typename = "UdpSinkApp"
*.node0_0_0_3.app[0].io.localPort = 2016

*.node0_0_0_2.app[0].typename = "UdpSourceApp"
*.node0_0_0_2.app[0].display-name = "VLAN_0_Flow_4"
*.node0_0_0_2.app[0].io.destAddress = "node0_0_0_5"
*.node0_0_0_2.app[0].io.destPort = 2019
*.node0_0_0_2.app[0].source.packetNameFormat = "%M->node0_0_0_5:TT:gId3:qId212-%c"
*.node0_0_0_2.app[0].source.packetLength = 488B - 58B
*.node0_0_0_2.app[0].source.productionInterval = 1000us
*.node0_0_0_2.app[0].source.initialProductionOffset = 0s
*.node0_0_0_5.app[0].typename = "UdpSinkApp"
*.node0_0_0_5.app[0].io.localPort = 2019

*.node0_0_0_2.app[1].typename = "UdpSourceApp"
*.node0_0_0_2.app[1].display-name = "VLAN_0_Flow_5"
*.node0_0_0_2.app[1].io.destAddress = "node0_0_0_1"
*.node0_0_0_2.app[1].io.destPort = 2020
*.node0_0_0_2.app[1].source.packetNameFormat = "%M->node0_0_0_1:TT:gId2:qId434-%c"
*.node0_0_0_2.app[1].source.packetLength = 501B - 58B
*.node0_0_0_2.app[1].source.productionInterval = 2500us
*.node0_0_0_2.app[1].source.initialProductionOffset = 0s
*.node0_0_0_1.app[0].typename = "UdpSinkApp"
*.node0_0_0_1.app[0].io.localPort = 2020

*.node0_0_0_1.app[1].typename = "UdpSourceApp"
*.node0_0_0_1.app[1].display-name = "VLAN_0_Flow_6"
*.node0_0_0_1.app[1].io.destAddress = "node0_0_0_4"
*.node0_0_0_1.app[1].io.destPort = 2021
*.node0_0_0_1.app[1].source.packetNameFormat = "%M->node0_0_0_4:TT:gId3:qId2121-%c"
*.node0_0_0_1.app[1].source.packetLength = 351B - 58B
*.node0_0_0_1.app[1].source.productionInterval = 5000us
*.node0_0_0_1.app[1].source.initialProductionOffset = 0s
*.node0_0_0_4.app[1].typename = "UdpSinkApp"
*.node0_0_0_4.app[1].io.localPort = 2021

*.node0_0_0_5.app[1].typename = "UdpSourceApp"
*.node0_0_0_5.app[1].display-name = "VLAN_0_Flow_7"
*.node0_0_0_5.app[1].io.destAddress = "node0_0_0_1"
*.node0_0_0_5.app[1].io.destPort = 2022
*.node0_0_0_5.app[1].source.packetNameFormat = "%M->node0_0_0_1:TT:gId1:qId757-%c"
*.node0_0_0_5.app[1].source.packetLength = 440B - 58B
*.node0_0_0_5.app[1].source.productionInterval = 5000us
*.node0_0_0_5.app[1].source.initialProductionOffset = 0s
*.node0_0_0_1.app[2].typename = "UdpSinkApp"
*.node0_0_0_1.app[2].io.localPort = 2022

*.node0_0_0_2.app[2].typename = "UdpSourceApp"
*.node0_0_0_2.app[2].display-name = "VLAN_0_Flow_8"
*.node0_0_0_2.app[2].io.destAddress = "node0_0_0_5"
*.node0_0_0_2.app[2].io.destPort = 2023
*.node0_0_0_2.app[2].source.packetNameFormat = "%M->node0_0_0_5:TT:gId1:qId7575-%c"
*.node0_0_0_2.app[2].source.packetLength = 176B - 58B
*.node0_0_0_2.app[2].source.productionInterval = 1000us
*.node0_0_0_2.app[2].source.initialProductionOffset = 0s
*.node0_0_0_5.app[2].typename = "UdpSinkApp"
*.node0_0_0_5.app[2].io.localPort = 2023

*.node0_0_0_4.app[2].typename = "UdpSourceApp"
*.node0_0_0_4.app[2].display-name = "VLAN_0_Flow_9"
*.node0_0_0_4.app[2].io.destAddress = "node0_0_0_2"
*.node0_0_0_4.app[2].io.destPort = 2024
*.node0_0_0_4.app[2].source.packetNameFormat = "%M->node0_0_0_2:TT:gId2:qId434-%c"
*.node0_0_0_4.app[2].source.packetLength = 219B - 58B
*.node0_0_0_4.app[2].source.productionInterval = 1000us
*.node0_0_0_4.app[2].source.initialProductionOffset = 0s
*.node0_0_0_2.app[3].typename = "UdpSinkApp"
*.node0_0_0_2.app[3].io.localPort = 2024

*.node0_0_0_2.app[4].typename = "UdpSourceApp"
*.node0_0_0_2.app[4].display-name = "VLAN_0_Flow_10"
*.node0_0_0_2.app[4].io.destAddress = "node0_0_0_5"
*.node0_0_0_2.app[4].io.destPort = 2025
*.node0_0_0_2.app[4].source.packetNameFormat = "%M->node0_0_0_5:TT:gId3:qId212-%c"
*.node0_0_0_2.app[4].source.packetLength = 412B - 58B
*.node0_0_0_2.app[4].source.productionInterval = 5000us
*.node0_0_0_2.app[4].source.initialProductionOffset = 0s
*.node0_0_0_5.app[3].typename = "UdpSinkApp"
*.node0_0_0_5.app[3].io.localPort = 2025

*.node0_0_0_5.app[4].typename = "UdpSourceApp"
*.node0_0_0_5.app[4].display-name = "VLAN_0_Flow_11"
*.node0_0_0_5.app[4].io.destAddress = "node0_0_0_2"
*.node0_0_0_5.app[4].io.destPort = 2026
*.node0_0_0_5.app[4].source.packetNameFormat = "%M->node0_0_0_2:TT:gId1:qId6576-%c"
*.node0_0_0_5.app[4].source.packetLength = 433B - 58B
*.node0_0_0_5.app[4].source.productionInterval = 1000us
*.node0_0_0_5.app[4].source.initialProductionOffset = 0s
*.node0_0_0_2.app[5].typename = "UdpSinkApp"
*.node0_0_0_2.app[5].io.localPort = 2026

*.node0_0_0_1.app[3].typename = "UdpSourceApp"
*.node0_0_0_1.app[3].display-name = "VLAN_0_Flow_12"
*.node0_0_0_1.app[3].io.destAddress = "node0_0_0_5"
*.node0_0_0_1.app[3].io.destPort = 2027
*.node0_0_0_1.app[3].source.packetNameFormat = "%M->node0_0_0_5:TT:gId2:qId4343-%c"
*.node0_0_0_1.app[3].source.packetLength = 380B - 58B
*.node0_0_0_1.app[3].source.productionInterval = 1000us
*.node0_0_0_1.app[3].source.initialProductionOffset = 0s
*.node0_0_0_5.app[5].typename = "UdpSinkApp"
*.node0_0_0_5.app[5].io.localPort = 2027

*.node0_0_0_5.app[6].typename = "UdpSourceApp"
*.node0_0_0_5.app[6].display-name = "VLAN_0_Flow_13"
*.node0_0_0_5.app[6].io.destAddress = "node0_0_0_2"
*.node0_0_0_5.app[6].io.destPort = 2028
*.node0_0_0_5.app[6].source.packetNameFormat = "%M->node0_0_0_2:TT:gId1:qId7657-%c"
*.node0_0_0_5.app[6].source.packetLength = 419B - 58B
*.node0_0_0_5.app[6].source.productionInterval = 2500us
*.node0_0_0_5.app[6].source.initialProductionOffset = 0s
*.node0_0_0_2.app[6].typename = "UdpSinkApp"
*.node0_0_0_2.app[6].io.localPort = 2028

*.node0_0_0_1.app[4].typename = "UdpSourceApp"
*.node0_0_0_1.app[4].display-name = "VLAN_0_Flow_14"
*.node0_0_0_1.app[4].io.destAddress = "node0_0_0_5"
*.node0_0_0_1.app[4].io.destPort = 2029
*.node0_0_0_1.app[4].source.packetNameFormat = "%M->node0_0_0_5:TT:gId1:qId7656-%c"
*.node0_0_0_1.app[4].source.packetLength = 76B - 58B
*.node0_0_0_1.app[4].source.productionInterval = 5000us
*.node0_0_0_1.app[4].source.initialProductionOffset = 0s
*.node0_0_0_5.app[7].typename = "UdpSinkApp"
*.node0_0_0_5.app[7].io.localPort = 2029

*.node0_0_0_4.app[3].typename = "UdpSourceApp"
*.node0_0_0_4.app[3].display-name = "VLAN_0_Flow_15"
*.node0_0_0_4.app[3].io.destAddress = "node0_0_0_1"
*.node0_0_0_4.app[3].io.destPort = 2030
*.node0_0_0_4.app[3].source.packetNameFormat = "%M->node0_0_0_1:TT:gId1:qId675-%c"
*.node0_0_0_4.app[3].source.packetLength = 122B - 58B
*.node0_0_0_4.app[3].source.productionInterval = 1000us
*.node0_0_0_4.app[3].source.initialProductionOffset = 0s
*.node0_0_0_1.app[5].typename = "UdpSinkApp"
*.node0_0_0_1.app[5].io.localPort = 2030

*.node0_0_0_1.app[6].typename = "UdpSourceApp"
*.node0_0_0_1.app[6].display-name = "VLAN_0_Flow_16"
*.node0_0_0_1.app[6].io.destAddress = "node0_0_0_5"
*.node0_0_0_1.app[6].io.destPort = 2031
*.node0_0_0_1.app[6].source.packetNameFormat = "%M->node0_0_0_5:TT:gId2:qId434-%c"
*.node0_0_0_1.app[6].source.packetLength = 335B - 58B
*.node0_0_0_1.app[6].source.productionInterval = 5000us
*.node0_0_0_1.app[6].source.initialProductionOffset = 0s
*.node0_0_0_5.app[8].typename = "UdpSinkApp"
*.node0_0_0_5.app[8].io.localPort = 2031

*.node0_0_0_1.app[7].typename = "UdpSourceApp"
*.node0_0_0_1.app[7].display-name = "VLAN_0_Flow_17"
*.node0_0_0_1.app[7].io.destAddress = "node0_0_0_5"
*.node0_0_0_1.app[7].io.destPort = 2032
*.node0_0_0_1.app[7].source.packetNameFormat = "%M->node0_0_0_5:TT:gId3:qId2121-%c"
*.node0_0_0_1.app[7].source.packetLength = 327B - 58B
*.node0_0_0_1.app[7].source.productionInterval = 1000us
*.node0_0_0_1.app[7].source.initialProductionOffset = 0s
*.node0_0_0_5.app[9].typename = "UdpSinkApp"
*.node0_0_0_5.app[9].io.localPort = 2032

*.node0_0_0_4.app[4].typename = "UdpSourceApp"