[general]
sim-time-limit = 2s
repeat = 10

include cqf.ini
#include csqf.ini
#include mcqf.ini
#include mcqf2.ini
